*GROWTH ASPECTS OUTPUT FILE

*DSSAT Cropping System Model Ver. 4.0.2.000               Oct 18, 2016; 16:14:02

*RUN   1        : SIMPLE TEMPLAT EXPERIMEN
 MODEL          : MZCER040 - Maize           
 EXPERIMENT     : SANT7001 MZ                                                   
 TREATMENT  1   : SIMPLE TEMPLAT EXPERIMEN

@YEAR DOY   DAS   DAP   L#SD   GSTD   LAID   LWAD   SWAD   GWAD   RWAD   CWAD   G#AD   GWGD   HIAD   PWAD   P#AD   WSPD   WSGD   NSTD   EWSD   LN%D   SH%D   HIPD   PWDD   PWTD     SLAD   CHTD   CWID   RDPD   RL1D   RL2D   RL3D   RL4D   RL5D   RL6D   RL7D   RL8D   RL9D   RL10   CDAD   LDAD   SDAD   SNW0C   SNW1C
 1970 288    60     0    0.0      0   0.00      0      0      0      0      0      0    0.0  0.000      0      0  0.000  0.000  0.000  0.000   0.00   0.00   0.00      0      0      0.0   0.00   0.00   0.06   0.00   0.00   0.00   0.00   0.00   0.00   0.00   0.00   0.00   0.00      0      0      0       0       0
 1970 289    61     1    0.0      0   0.00      0      0      0      0      0      0    0.0  0.000      0      0  0.000  0.000  0.000  0.000   0.00   0.00   0.00      0      0      0.0   0.00   0.00   0.07   0.00   0.00   0.00   0.00   0.00   0.00   0.00   0.00   0.00   0.00      0      0      0       0       0
 1970 290    62     2    0.0      0   0.00      0      0      0      0      0      0    0.0  0.000      0      0  0.000  0.000  0.000  0.000   0.00   0.00   0.00      0      0      0.0   0.00   0.00   0.09   0.00   0.00   0.00   0.00   0.00   0.00   0.00   0.00   0.00   0.00      0      0      0       0       0
 1970 291    63     3    0.0      0   0.00      0      0      0      0      0      0    0.0  0.000      0      0  0.000  0.000  0.000  0.000   0.00   0.00   0.00      0      0      0.0   0.00   0.00   0.10   0.00   0.00   0.00   0.00   0.00   0.00   0.00   0.00   0.00   0.00      0      0      0       0       0
 1970 292    64     4    0.0      0   0.00      0      0      0      0      0      0    0.0  0.000      0      0  0.000  0.000  0.000  0.000   0.00   0.00   0.00      0      0      0.0   0.00   0.00   0.11   0.00   0.00   0.00   0.00   0.00   0.00   0.00   0.00   0.00   0.00      0      0      0       0       0
 1970 293    65     5    0.0      0   0.00      0      0      0      0      0      0    0.0  0.000      0      0  0.000  0.000  0.000  0.000   0.00   0.00   0.00      0      0      0.0   0.00   0.00   0.12   0.00   0.00   0.00   0.00   0.00   0.00   0.00   0.00   0.00   0.00      0      0      0       0       0
 1970 294    66     6    0.0      0   0.00      0      0      0      0      0      0    0.0  0.000      0      0  0.000  0.000  0.000  0.000   0.00   0.00   0.00      0      0      0.0   0.00   0.00   0.14   0.00   0.00   0.00   0.00   0.00   0.00   0.00   0.00   0.00   0.00      0      0      0       0       0
 1970 295    67     7    0.0      0   0.00      0      0      0      0      0      0    0.0  0.000      0      0  0.000  0.000  0.000  0.000   0.00   0.00   0.00      0      0      0.0   0.00   0.00   0.15   0.00   0.00   0.00   0.00   0.00   0.00   0.00   0.00   0.00   0.00      0      0      0       0       0
 1970 296    68     8    0.0      0   0.00      0      0      0      0      0      0    0.0  0.000      0      0  0.000  0.000  0.000  0.000   0.00   0.00   0.00      0      0      0.0   0.00   0.00   0.17   0.00   0.00   0.00   0.00   0.00   0.00   0.00   0.00   0.00   0.00      0      0      0       0       0
 1970 297    69     9    0.0      0   0.00      0      0      0      0      0      0    0.0  0.000      0      0  0.000  0.000  0.000  0.000   0.00   0.00   0.00      0      0      0.0   0.00   0.00   0.19   0.00   0.00   0.00   0.00   0.00   0.00   0.00   0.00   0.00   0.00      0      0      0       0       0
 1970 298    70    10    1.0      1   0.00     14     14      0     14     28      0    0.0  0.000      0      0  0.000  0.000  0.012  0.000   4.40   0.00   0.00      0      0     20.8   0.00   0.00   0.20   0.28   0.14   0.03   0.00   0.00   0.00   0.00   0.00   0.00   0.00      0      0      0       0       0
 1970 299    71    11    2.0      1   0.00     14     14      0     14     28      0    0.0  0.000      0      0  0.000  0.000  0.015  0.000   4.52   0.00   0.00      0      0     29.5   0.00   0.00   0.21   0.28   0.14   0.03   0.00   0.00   0.00   0.00   0.00   0.00   0.00      0      0      0       0       0
 1970 300    72    12    2.0      1   0.00     14     14      0     14     28      0    0.0  0.000      0      0  0.000  0.000  0.000  0.000   4.52   0.00   0.00      0      0     32.4   0.00   0.00   0.21   0.28   0.14   0.03   0.00   0.00   0.00   0.00   0.00   0.00   0.00      0      0      0       0       0
 1970 301    73    13    2.0      1   0.01     14     14      0     15     28      0    0.0  0.000      0      0  0.000  0.000  0.000  0.000   4.48   0.00   0.00      0      0     46.4   0.00   0.00   0.21   0.28   0.15   0.03   0.00   0.00   0.00   0.00   0.00   0.00   0.00      0      0      0       0       0
 1970 302    74    14    2.0      1   0.01     14     14      0     16     28      0    0.0  0.000      0      0  0.000  0.000  0.000  0.000   4.45   0.00   0.00      0      0     66.9   0.00   0.00   0.22   0.28   0.16   0.03   0.00   0.00   0.00   0.00   0.00   0.00   0.00      0      0      0       0       0
 1970 303    75    15    3.0      1   0.01     14     14      0     17     28      0    0.0  0.000      0      0  0.000  0.000  0.000  0.000   4.45   0.00   0.00      0      0     93.2   0.00   0.00   0.23   0.28   0.17   0.04   0.00   0.00   0.00   0.00   0.00   0.00   0.00      0      0      0       0       0
 1970 304    76    16    3.0      1   0.02     14     14      0     18     28      0    0.0  0.000      0      0  0.000  0.000  0.000  0.000   4.45   0.00   0.00      0      0    112.1   0.00   0.00   0.24   0.27   0.17   0.04   0.00   0.00   0.00   0.00   0.00   0.00   0.00      0      0      0       0       0
 1970 305    77    17    3.0      1   0.02     14     14      0     20     28      0    0.0  0.000      0      0  0.000  0.000  0.000  0.006   4.34   0.00   0.00      0      0    132.3   0.00   0.00   0.25   0.26   0.19   0.06   0.00   0.00   0.00   0.00   0.00   0.00   0.00      0      0      0       0       0
 1970 306    78    18    4.0      1   0.03     14     14      0     24     28      0    0.0  0.000      0      0  0.000  0.000  0.000  0.000   4.30   0.00   0.00      0      0    226.9   0.00   0.00   0.26   0.26   0.22   0.08   0.00   0.00   0.00   0.00   0.00   0.00   0.00      0      0      0       0       0
 1970 307    79    19    4.0      1   0.05     14     14      0     29     28      0    0.0  0.000      0      0  0.000  0.000  0.000  0.000   4.26   0.00   0.00      0      0    343.6   0.00   0.00   0.27   0.26   0.27   0.12   0.00   0.00   0.00   0.00   0.00   0.00   0.00      0      0      0       0       0
 1970 308    80    20    4.0      1   0.07     22     14      0     33     36      0    0.0  0.000      0      0  0.000  0.000  0.000  0.000   3.24   0.00   0.00      0      0    312.5   0.00   0.00   0.28   0.26   0.30   0.15   0.00   0.00   0.00   0.00   0.00   0.00   0.00      0      0      0       0       1
 1970 309    81    21    5.0      1   0.09     33     14      0     39     47      0    0.0  0.000      0      0  0.000  0.000  0.000  0.000   3.23   0.00   0.00      0      0    289.1   0.00   0.00   0.29   0.26   0.35   0.19   0.00   0.00   0.00   0.00   0.00   0.00   0.00      0      0      0       0       1
 1970 310    82    22    5.0      1   0.12     44     14      0     43     58      0    0.0  0.000      0      0  0.000  0.000  0.000  0.000   3.33   0.00   0.00      0      0    272.5   0.00   0.00   0.30   0.26   0.38   0.22   0.00   0.00   0.00   0.00   0.00   0.00   0.00      0      0      0       0       1
 1970 311    83    23    6.0      1   0.15     58     14      0     57     72      0    0.0  0.000      0      0  0.000  0.000  0.000  0.000   3.24   0.00   0.00      0      0    257.0   0.00   0.00   0.31   0.28   0.48   0.32   0.00   0.00   0.00   0.00   0.00   0.00   0.00      0      0      0       0       1
 1970 312    84    24    6.0      1   0.18     73     14      0     64     87      0    0.0  0.000      0      0  0.000  0.000  0.000  0.000   3.32   0.00   0.00      0      0    245.1   0.00   0.00   0.32   0.28   0.52   0.38   0.01   0.00   0.00   0.00   0.00   0.00   0.00      0      0      0       0       1
 1970 313    85    25    6.0      1   0.21     90     14      0     77    104      0    0.0  0.000      0      0  0.000  0.000  0.000  0.000   3.33   0.00   0.00      0      0    234.8   0.00   0.00   0.33   0.30   0.61   0.48   0.02   0.00   0.00   0.00   0.00   0.00   0.00      0      0      0       0       2
 1970 314    86    26    7.0      1   0.23    102     14      0     95    116      0    0.0  0.000      0      0  0.000  0.000  0.000  0.000   3.55   0.00   0.00      0      0    229.0   0.00   0.00   0.33   0.33   0.72   0.60   0.05   0.00   0.00   0.00   0.00   0.00   0.00      0      0      0       0       2
 1970 315    87    27    7.0      1   0.25    113     14      0    110    127      0    0.0  0.000      0      0  0.000  0.000  0.000  0.000   3.57   0.00   0.00      0      0    223.9   0.00   0.00   0.34   0.34   0.81   0.70   0.07   0.00   0.00   0.00   0.00   0.00   0.00      0      0      0       0       3
 1970 316    88    28    7.0      2   0.29    123     14      0    136    137      0    0.0  0.000      0      0  0.000  0.000  0.000  0.000   3.63   0.00   0.00      0      0    235.4   0.00   0.00   0.35   0.36   0.97   0.88   0.12   0.00   0.00   0.00   0.00   0.00   0.00      0      0      0       0       3
 1970 317    89    29    7.0      2   0.33    145     14      0    173    159      0    0.0  0.000      0      0  0.000  0.000  0.000  0.000   3.34   0.00   0.00      0      0    227.2   0.00   0.00   0.37   0.39   1.17   1.12   0.22   0.00   0.00   0.00   0.00   0.00   0.00      0      0      0       0       4
 1970 318    90    30    8.0      2   0.38    174     14      0    215    188      0    0.0  0.000      0      0  0.000  0.000  0.000  0.000   3.25   0.00   0.00      0      0    219.1   0.00   0.00   0.39   0.42   1.38   1.38   0.36   0.00   0.00   0.00   0.00   0.00   0.00      0      0      0       0       5
 1970 319    91    31    8.0      2   0.44    210     14      0    260    224      0    0.0  0.000      0      0  0.000  0.000  0.000  0.000   3.80   0.00   0.00      0      0    210.7   0.00   0.00   0.41   0.45   1.59   1.64   0.54   0.00   0.00   0.00   0.00   0.00   0.00      0      0      0       0       6
 1970 320    92    32    8.0      2   0.49    240     14      0    308    254      0    0.0  0.000      0      0  0.000  0.000  0.000  0.000   3.73   0.00   0.00      0      0    204.9   0.00   0.00   0.42   0.46   1.76   1.92   0.76   0.00   0.00   0.00   0.00   0.00   0.00      0      0      0       0       7
 1970 321    93    33    8.0      3   0.51    261     14      0    369    275      0    0.0  0.000      0      0  0.000  0.000  0.022  0.000   3.65   0.00   0.00      0      0    194.0   0.00   0.00   0.43   0.48   1.94   2.27   1.09   0.00   0.00   0.00   0.00   0.00   0.00      0      0      0       0       9
 1970 322    94    34    9.0      3   0.53    281     14      0    440    295      0    0.0  0.000      0      0  0.000  0.000  0.022  0.000   3.58   0.00   0.00      0      0    189.5   0.00   0.00   0.44   0.51   2.12   2.66   1.49   0.00   0.00   0.00   0.00   0.00   0.00      0      0      0       0      10
 1970 323    95    35    9.0      3   0.58    312     14      0    509    326      0    0.0  0.000      0      0  0.000  0.000  0.022  0.000   3.55   0.00   0.00      0      0    186.0   0.00   0.00   0.45   0.54   2.25   3.03   1.93   0.00   0.00   0.00   0.00   0.00   0.00      0      0      0       0      13
 1970 324    96    36    9.0      3   0.63    343     15      0    535    358      0    0.0  0.000      0      0  0.000  0.000  0.022  0.000   3.51   0.00   0.00      0      0    182.9   0.00   0.00   0.46   0.55   2.27   3.16   2.10   0.02   0.00   0.00   0.00   0.00   0.00      0      0      0       0      15
 1970 325    97    37    9.0      3   0.62    360     15      0    603    375      0    0.0  0.000      0      0  0.000  0.000  0.022  0.000   3.53   0.00   0.00      0      0    173.6   0.00   0.00   0.47   0.59   2.30   3.51   2.54   0.10   0.00   0.00   0.00   0.00   0.00      0      0      0       0      18
 1970 326    98    38    9.0      3   0.66    384     16      0    684    400      0    0.0  0.000      0      0  0.000  0.000  0.022  0.000   3.47   0.00   0.00      0      0    171.8   0.00   0.00   0.48   0.64   2.34   3.85   3.05   0.25   0.00   0.00   0.00   0.00   0.00      0      0      0       0      21
 1970 327    99    39   10.0      3   0.70    416     17      0    765    433      0    0.0  0.000      0      0  0.000  0.000  0.022  0.000   3.44   0.00   0.00      0      0    168.5   0.00   0.00   0.49   0.69   2.39   4.00   3.54   0.46   0.00   0.00   0.00   0.00   0.00      0      0      0       0      24
 1970 328   100    40   10.0      3   0.77    465     19      0    841    484      0    0.0  0.000      0      0  0.000  0.000  0.022  0.000   3.40   0.00   0.00      0      0    165.8   0.00   0.00   0.50   0.75   2.44   4.00   3.97   0.74   0.00   0.00   0.00   0.00   0.00      0      0      0       0      28
 1970 329   101    41   10.0      3   0.86    527     23      0    911    550      0    0.0  0.000      0      0  0.000  0.000  0.022  0.000   3.34   0.00   0.00      0      0    162.9   0.00   0.00   0.52   0.82   2.49   4.00   4.00   1.11   0.00   0.00   0.00   0.00   0.00      0      0      0       0      32
 1970 330   102    42   10.0      3   0.93    583     29      0    942    612      0    0.0  0.000      0      0  0.000  0.000  0.022  0.000   3.30   0.00   0.00      0      0    160.4   0.00   0.00   0.53   0.85   2.52   4.00   4.00   1.33   0.00   0.00   0.00   0.00   0.00      0      0      0       0      37
 1970 331   103    43   11.0      3   1.04    663     39      0   1022    702      0    0.0  0.000      0      0  0.000  0.000  0.022  0.000   3.06   0.00   0.00      0      0    157.2   0.00   0.00   0.55   0.96   2.62   4.00   4.00   1.95   0.00   0.00   0.00   0.00   0.00      0      0      0       0      42
 1970 332   104    44   11.0      3   1.14    734     50      0   1116    784      0    0.0  0.000      0      0  0.000  0.000  0.022  0.000   2.86   0.00   0.00      0      0    154.7   0.00   0.00   0.56   1.12   2.77   4.00   4.00   2.77   0.00   0.00   0.00   0.00   0.00      0      0      0       0      47
 1970 333   105    45   11.0      3   1.23    806     64      0   1188    870      0    0.0  0.000      0      0  0.000  0.000  0.022  0.000   2.68   0.00   0.00      0      0    152.2   0.00   0.00   0.57   1.26   2.91   4.00   4.00   3.44   0.00   0.00   0.00   0.00   0.00      0      0      0       0      52
 1970 334   106    46   12.0      3   1.30    863     76      0   1306    939      0    0.0  0.000      0      0  0.000  0.000  0.029  0.000   2.55   0.00   0.00      0      0    150.2   0.00   0.00   0.58   1.53   3.17   4.00   4.00   4.00   0.00   0.00   0.00   0.00   0.00      0      0      0       0      58
 1970 335   107    47   12.0      3   1.36    918     89      0   1425   1007      0    0.0  0.000      0      0  0.000  0.000  0.038  0.000   2.44   0.00   0.00      0      0    148.2   0.00   0.00   0.59   1.85   3.48   4.00   4.00   4.00   0.00   0.00   0.00   0.00   0.00      0      0      0       0      65
 1970 336   108    48   12.0      3   1.43    976    104      0   1546   1080      0    0.0  0.000      0      0  0.000  0.000  0.046  0.000   2.31   0.00   0.00      0      0    146.1   0.00   0.00   0.60   2.22   3.84   4.00   4.00   4.00   0.00   0.00   0.00   0.00   0.00      0      0      0       0      72
 1970 337   109    49   12.0      3   1.50   1045    125      0   1661   1171      0    0.0  0.000      0      0  0.000  0.000  0.054  0.000   2.16   0.00   0.00      0      0    143.7   0.00   0.00   0.61   2.41   3.90   3.91   3.86   4.00   0.10   0.00   0.00   0.00   0.00      0      0      0       0      80
 1970 338   110    50   13.0      3   1.61   1140    158      0   1711   1298      0    0.0  0.000      0      0  0.000  0.000  0.063  0.009   2.01   0.00   0.00      0      0    140.9   0.00   0.00   0.62   2.22   3.79   3.73   3.65   3.85   0.21   0.00   0.00   0.00   0.00      0      0      0       0      88
 1970 339   111    51   13.0      3   1.69   1223    192      0   1791   1415      0    0.0  0.000      0      0  0.000  0.000  0.072  0.019   1.91   0.00   0.00      0      0    138.3   0.00   0.00   0.63   2.06   3.78   3.64   3.52   3.66   0.46   0.00   0.00   0.00   0.00      0      0      0       0      97
 1970 340   112    52   13.0      3   1.76   1298    226      0   1910   1524      0    0.0  0.000      0      0  0.000  0.000  0.086  0.037   1.85   0.00   0.00      0      0    135.8   0.00   0.00   0.64   1.93   3.88   3.62   3.45   3.54   0.84   0.00   0.00   0.00   0.00      0      0      0       0     105
 1970 341   113    53   14.0      3   1.85   1394    276      0   2010   1670      0    0.0  0.000      0      0  0.000  0.000  0.095  0.054   1.77   0.00   0.00      0      0    133.0   0.00   0.00   0.66   2.07   3.92   3.58   3.38   3.44   1.17   0.00   0.00   0.00   0.00      0      0      0       0     115
 1970 342   114    54   14.0      3   1.96   1509    345      0   2065   1855      0    0.0  0.000      0      0  0.000  0.000  0.097  0.053   1.67   0.00   0.00      0      0    130.1   0.00   0.00   0.67   2.12   3.89   3.52   3.30   3.34   1.36   0.00   0.00   0.00   0.00      0      0      0       0     125
 1970 343   115    55   14.0      3   2.06   1615    419      0   2135   2034      0    0.0  0.000      0      0  0.000  0.000  0.105  0.029   1.59   0.00   0.00      0      0    127.4   0.00   0.00   0.69   2.24   3.97   3.55   3.31   3.33   1.64   0.00   0.00   0.00   0.00      0      0      0       0     135
 1970 344   116    56   15.0      3   2.29   1854    513      0   2143   2367      0    0.0  0.000      0      0  0.000  0.000  0.119  0.000   1.43   0.00   0.00      0      0    123.6   0.00   0.00   0.70   2.27   3.99   3.55   3.31   3.32   1.70   0.00   0.00   0.00   0.00      0      0      0       0     146
 1970 345   117    57   15.0      3   2.38   1967    618      0   2212   2586      0    0.0  0.000      0      0  0.000  0.000  0.133  0.000   1.35   0.00   0.00      0      0    120.8   0.00   0.00   0.71   2.43   4.00   3.64   3.37   3.37   2.01   0.00   0.00   0.00   0.00      0      0      0       0     157
 1970 346   118    58   15.0      3   2.40   2041    712      0   2306   2752      0    0.0  0.000      0      0  0.000  0.000  0.174  0.000   1.31   0.00   0.00      0      0    117.8   0.00   0.00   0.72   2.42   4.00   3.78   3.47   3.43   2.42   0.00   0.00   0.00   0.00      0      0      0       0     168
 1970 347   119    59   16.0      3   2.42   2110    823      0   2378   2933      0    0.0  0.000      0      0  0.000  0.000  0.193  0.000   1.26   0.00   0.00      0      0    114.6   0.00   0.00   0.73   2.60   4.00   3.88   3.54   3.48   2.72   0.00   0.00   0.00   0.00      0      0      0       0     179
 1970 348   120    60   16.0      3   2.42   2171    939      0   2437   3110      0    0.0  0.000      0      0  0.000  0.000  0.202  0.000   1.22   0.00   0.00      0      0    111.6   0.00   0.00   0.74   2.75   4.00   3.97   3.60   3.52   2.96   0.00   0.00   0.00   0.00      0      0      0       0     191
 1970 349   121    61   16.0      3   2.42   2225   1053      0   2470   3278      0    0.0  0.000      0      0  0.000  0.049  0.227  0.000   1.18   0.00   0.00      0      0    108.6   0.00   0.00   0.76   2.85   4.00   4.00   3.64   3.55   3.10   0.00   0.00   0.00   0.00      0      0      0       0     203
 1970 350   122    62   17.0      3   2.40   2277   1177      0   2541   3454      0    0.0  0.000      0      0  0.000  0.000  0.246  0.000   1.14   0.00   0.00      0      0    105.6   0.00   0.00   0.77   3.05   4.00   4.00   3.72   3.60   3.37   0.00   0.00   0.00   0.00      0      0      0       0     216
 1970 351   123    63   17.0      3   2.39   2328   1313      0   2576   3642      0    0.0  0.000      0      0  0.000  0.273  0.256  0.000   1.10   0.00   0.00      0      0    102.7   0.00   0.00   0.79   3.16   4.00   4.00   3.76   3.63   3.50   0.00   0.00   0.00   0.00      0      0      0       0     229
 1970 352   124    64   18.0      3   2.36   2364   1416      0   2638   3780      0    0.0  0.000      0      0  0.397  0.599  0.272  0.000   1.08   0.00   0.00      0      0     99.9   0.00   0.00   0.80   3.14   4.00   4.00   3.85   3.69   3.72   0.00   0.00   0.00   0.00      0      0      0       0     241
 1970 353   125    65   18.0      3   2.33   2397   1514      0   2673   3910      0    0.0  0.000      0      0  0.449  0.633  0.292  0.000   1.06   0.00   0.00      0      0     97.1   0.00   0.00   0.82   3.13   4.00   4.00   3.91   3.73   3.84   0.00   0.00   0.00   0.00      0      0      0       0     255
 1970 354   126    66   18.0      3   2.30   2433   1629      0   2674   4062      0    0.0  0.000      0      0  0.221  0.481  0.292  0.000   1.03   0.00   0.00      0      0     94.4   0.00   0.00   0.83   3.11   4.00   4.00   3.92   3.73   3.86   0.00   0.00   0.00   0.00      0      0      0       0     268
 1970 355   127    67   18.0      3   2.24   2451   1691      0   2708   4142      0    0.0  0.000      0      0  0.625  0.750  0.308  0.000   1.02   0.00   0.00      0      0     91.5   0.00   0.00   0.84   3.10   4.00   4.00   3.99   3.78   3.93   0.00   0.00   0.00   0.00      0      0      0       0     281
 1970 356   128    68   18.0      3   2.19   2469   1746      0   2736   4215      0    0.0  0.000      0      0  0.667  0.779  0.334  0.000   1.01   0.00   0.00      0      0     88.6   0.00   0.00   0.86   3.08   4.00   4.00   4.00   3.83   3.98   0.00   0.00   0.00   0.00      0      0      0       0     295
 1970 357   129    69   18.0      3   2.12   2486   1801      0   2747   4286      0    0.0  0.000      0      0  0.734  0.823  0.332  0.000   1.00   0.00   0.00      0      0     85.4   0.00   0.00   0.87   3.07   4.00   4.00   4.00   3.85   3.99   0.00   0.00   0.00   0.00      0      0      0       0     309
 1970 358   130    70   18.0      3   2.06   2500   1849      0   2753   4349      0    0.0  0.000      0      0  0.773  0.849  0.330  0.000   0.99   0.00   0.00      0      0     82.2   0.00   0.00   0.88   3.14   4.00   4.00   4.00   3.87   3.99   0.00   0.00   0.00   0.00      0      0      0       0     322
 1970 359   131    71   18.0      4   1.99   2473   1587      0   2753   4486      0    0.0  0.000    426      0  0.390  0.594  0.321  0.000   1.07   0.00   0.10      0    426     80.7   0.00   0.00   0.89   3.18   4.00   4.00   4.00   3.87   3.98   0.00   0.00   0.00   0.00      0      0      0       0     336
 1970 360   132    72   18.0      4   1.93   2442   1618      0   2751   4562      0    0.0  0.000    502      0  0.590  0.727  0.313  0.000   1.08   0.00   0.11      0    502     79.2   0.00   0.00   0.90   3.22   4.00   4.00   4.00   3.87   3.97   0.00   0.00   0.00   0.00      0      0      0       0     350
 1970 361   133    73   18.0      4   1.89   2410   1652      0   2742   4652      0    0.0  0.000    589      0  0.000  0.000  0.196  0.000   1.08   0.00   0.13      0    589     78.3   0.00   0.00   0.91   3.23   4.00   3.99   3.99   3.85   3.96   0.00   0.00   0.00   0.00      0      0      0       0     364
 1970 362   134    74   18.0      4   1.84   2377   1689      0   2795   4748      0    0.0  0.000    682      0  0.000  0.000  0.190  0.000   1.09   0.00   0.14      0    682     77.5   0.00   0.00   0.92   3.47   4.00   4.00   4.00   3.93   3.99   0.06   0.00   0.00   0.00      0      0      0       0     377
 1970 363   135    75   18.0      4   1.80   2341   1726      0   2883   4839      0    0.0  0.000    772      0  0.000  0.000  0.183  0.000   1.10   0.00   0.16      0    772     76.9   0.00   0.00   0.93   3.84   4.00   4.00   4.00   4.00   4.00   0.16   0.00   0.00   0.00      0      0      0       0     391
 1970 364   136    76   18.0      4   1.76   2305   1766      0   2970   4942      0    0.0  0.000    872      0  0.000  0.000  0.174  0.000   1.12   0.00   0.18      0    872     76.4   0.00   0.00   0.94   4.00   4.00   4.00   4.00   4.00   4.00   0.29   0.00   0.00   0.00      0      0      0       0     406
 1970 365   137    77   18.0      4   1.72   2266   1802      0   2990   5030      0    0.0  0.000    962      0  0.000  0.000  0.165  0.000   1.13   0.00   0.19      0    962     76.1   0.00   0.00   0.95   4.00   4.00   4.00   4.00   4.00   4.00   0.33   0.00   0.00   0.00      0      0      0       0     421
 1971 001   138    78   18.0      4   1.69   2226   1854      0   3056   5175      0    0.0  0.000   1094      0  0.000  0.000  0.154  0.000   1.15   0.00   0.21      0   1094     76.0   0.00   0.00   0.95   3.98   4.00   4.00   4.00   4.00   4.00   0.47   0.00   0.00   0.00      0      0      0       0     435
 1971 002   139    79   18.0      4   1.66   2184   1921      0   3094   5364      0    0.0  0.000   1259      0  0.000  0.080  0.143  0.000   1.15   0.00   0.23      0   1259     76.1   0.00   0.00   0.97   3.96   4.00   4.00   4.00   4.00   4.00   0.56   0.00   0.00   0.00      0      0      0       0     451
 1971 003   140    80   18.0      4   1.63   2140   1989      0   3113   5560      0    0.0  0.000   1431      0  0.000  0.000  0.134  0.000   1.16   0.00   0.26      0   1431     76.4   0.00   0.00   0.98   4.00   4.00   4.00   4.00   4.00   4.00   0.62   0.00   0.00   0.00      0      0      0       0     466
 1971 004   141    81   18.0      4   1.61   2093   2049      0   3151   5724      0    0.0  0.000   1581      0  0.000  0.000  0.127  0.000   1.17   0.00   0.28      0   1581     76.8   0.00   0.00   0.99   4.00   4.00   4.00   4.00   4.00   4.00   0.72   0.00   0.00   0.00      0      0      0       0     482
 1971 005   142    82   18.0      4   1.58   2045   2109      0   3200   5886      0    0.0  0.000   1732      0  0.000  0.000  0.120  0.000   1.18   0.00   0.29      0   1732     77.4   0.00   0.00   1.00   3.98   4.00   4.00   3.99   4.00   4.00   0.87   0.00   0.00   0.00      0      0      0       0     498
 1971 006   143    83   18.0      5   1.55   2045   2109    181   3200   6067   1434   12.6  0.030   1913      7  0.000  0.000  0.189  0.000   1.14   9.48   0.32      0   1913     75.6   0.00   0.00   1.01   3.96   4.00   4.00   3.97   4.00   3.99   0.90   0.00   0.00   0.00      0      0      0       0     514
 1971 007   144    84   18.0      5   1.51   2045   2109    303   3193   6189   1434   21.1  0.049   2035      7  0.000  0.000  0.199  0.000   1.12  14.90   0.33      0   2035     73.7   0.00   0.00   1.02   3.94   4.00   4.00   3.95   3.99   3.98   0.92   0.00   0.00   0.00      0      0      0       0     530
 1971 008   145    85   18.0      5   1.47   2045   2109    425   3207   6311   1434   29.6  0.067   2157      7  0.000  0.000  0.203  0.000   1.10  19.71   0.34      0   2157     71.9   0.00   0.00   1.03   3.92   4.00   4.00   3.93   4.00   3.99   0.99   0.00   0.00   0.00      0      0      0       0     546
 1971 009   146    86   18.0      5   1.43   2045   2109    541   3202   6426   1434   37.7  0.084   2272      7  0.000  0.000  0.216  0.000   1.08  23.79   0.35      0   2272     70.0   0.00   0.00   1.03   3.94   4.00   4.00   3.91   3.98   3.98   1.01   0.00   0.00   0.00      0      0      0       0     562
 1971 010   147    87   18.0      5   1.40   2045   2109    646   3186   6532   1434   45.1  0.099   2378      7  0.000  0.000  0.224  0.000   1.07  27.18   0.36      0   2378     68.2   0.00   0.00   1.04   3.92   3.98   3.98   3.89   3.96   3.96   1.00   0.00   0.00   0.00      0      0      0       0     578
 1971 011   148    88   18.0      5   1.36   2045   2091    768   3170   6636   1434   53.6  0.116   2500      7  0.000  0.000  0.232  0.000   1.05  30.73   0.38      0   2500     66.4   0.00   0.00   1.04   3.92   3.98   3.98   3.89   3.96   3.96   1.00   0.00   0.00   0.00      0      0      0       0     593
 1971 012   149    89   18.0      5   1.32   2045   2109    890   3176   6776   1434   62.1  0.131   2622      7  0.000  0.000  0.242  0.000   1.02  33.95   0.39      0   2622     64.7   0.00   0.00   1.05   3.98   4.00   4.00   3.91   3.94   3.95   1.03   0.00   0.00   0.00      0      0      0       0     609
 1971 013   150    90   18.0      5   1.29   2045   2109   1012   3192   6898   1434   70.6  0.147   2743      7  0.000  0.000  0.247  0.000   1.00  36.88   0.40      0   2743     62.9   0.00   0.00   1.06   4.00   4.00   4.00   3.95   3.92   3.96   1.08   0.00   0.00   0.00      0      0      0       0     625
 1971 014   151    91   18.0      5   1.25   2045   2109   1134   3210   7019   1434   79.1  0.162   2865      7  0.000  0.000  0.260  0.000   0.98  39.57   0.41      0   2865     61.2   0.00   0.00   1.07   4.00   4.00   4.00   3.99   3.91   3.97   1.13   0.00   0.00   0.00      0      0      0       0     641
 1971 015   152    92   18.0      5   1.22   2045   2109   1256   3225   7141   1434   87.6  0.176   2987      7  0.000  0.000  0.266  0.000   0.96  42.03   0.42      0   2987     59.5   0.00   0.00   1.08   4.00   4.00   4.00   4.00   3.89   3.97   1.17   0.00   0.00   0.00      0      0      0       0     657
 1971 016   153    93   18.0      5   1.18   2045   2109   1378   3240   7263   1434   96.1  0.190   3109      7  0.000  0.000  0.274  0.000   0.94  44.31   0.43      0   3109     57.8   0.00   0.00   1.09   3.98   4.00   4.00   4.00   3.87   3.98   1.21   0.00   0.00   0.00      0      0      0       0     673
 1971 017   154    94   18.0      5   1.15   2045   2109   1499   3251   7385   1434  104.6  0.203   3231      7  0.000  0.000  0.280  0.000   0.92  46.41   0.44      0   3231     56.2   0.00   0.00   1.10   3.96   4.00   4.00   4.00   3.85   3.99   1.25   0.00   0.00   0.00      0      0      0       0     690
 1971 018   155    95   18.0      5   1.12   2045   2109   1621   3257   7507   1434  113.1  0.216   3353      7  0.000  0.000  0.289  0.000   0.90  48.36   0.45      0   3353     54.6   0.00   0.00   1.12   4.00   4.00   4.00   4.00   3.84   3.99   1.27   0.00   0.00   0.00      0      0      0       0     706
 1971 019   156    96   18.0      5   1.08   2045   2109   1743   3244   7629   1434  121.6  0.228   3475      7  0.000  0.000  0.295  0.000   0.88  50.17   0.46      0   3475     53.0   0.00   0.00   1.13   3.99   3.99   3.99   3.99   3.82   3.97   1.27   0.00   0.00   0.00      0      0      0       0     722
 1971 020   157    97   18.0      5   1.05   2045   2109   1865   3247   7751   1434  130.1  0.241   3597      7  0.000  0.000  0.304  0.000   0.86  51.86   0.46      0   3597     51.4   0.00   0.00   1.14   4.00   4.00   4.00   4.00   3.80   3.97   1.28   0.00   0.00   0.00      0      0      0       0     738
 1971 021   158    98   18.0      5   1.02   2045   2109   1987   3241   7873   1434  138.6  0.252   3719      7  0.000  0.000  0.316  0.000   0.84  53.43   0.47      0   3719     49.9   0.00   0.00   1.15   4.00   4.00   4.00   4.00   3.78   3.96   1.28   0.00   0.00   0.00      0      0      0       0     755
 1971 022   159    99   18.0      5   0.99   2045   2109   2109   3241   7994   1434  147.1  0.264   3840      7  0.000  0.000  0.327  0.000   0.83  54.91   0.48      0   3840     48.4   0.00   0.00   1.16   4.00   4.00   4.00   4.00   3.76   3.96   1.29   0.00   0.00   0.00      0      0      0       0     771
 1971 023   160   100   18.0      5   0.96   2045   2086   2231   3225   8093   1434  155.6  0.276   3962      7  0.000  0.000  0.337  0.000   0.81  56.30   0.49      0   3962     46.9   0.00   0.00   1.16   4.00   4.00   4.00   4.00   3.76   3.96   1.29   0.00   0.00   0.00      0      0      0       0     787
 1971 024   161   101   18.0      5   0.93   2045   2098   2353   3214   8227   1434  164.1  0.286   4084      7  0.000  0.000  0.350  0.000   0.79  57.60   0.50      0   4084     45.4   0.00   0.00   1.17   4.00   4.00   4.00   3.99   3.75   3.94   1.28   0.00   0.00   0.00      0      0      0       0     803
 1971 025   162   102   18.0      5   0.90   2045   2109   2474   3213   8360   1434  172.6  0.296   4206      7  0.000  0.000  0.360  0.000   0.78  58.83   0.50      0   4206     44.0   0.00   0.00   1.17   4.00   4.00   4.00   4.00   3.73   3.94   1.29   0.00   0.00   0.00      0      0      0       0     819
 1971 026   163   103   18.0      5   0.87   2045   2086   2596   3197   8458   1434  181.1  0.307   4328      7  0.000  0.000  0.369  0.000   0.77  59.99   0.51      0   4328     42.6   0.00   0.00   1.17   4.00   4.00   4.00   4.00   3.73   3.94   1.29   0.00   0.00   0.00      0      0      0       0     835
 1971 027   164   104   18.0      5   0.84   2045   2067   2718   3181   8561   1434  189.6  0.317   4450      7  0.000  0.000  0.379  0.000   0.76  61.09   0.52      0   4450     41.2   0.00   0.00   1.17   4.00   4.00   4.00   4.00   3.73   3.94   1.29   0.00   0.00   0.00      0      0      0       0     851
 1971 028   165   105   18.0      5   0.81   2045   2041   2840   3165   8658   1434  198.1  0.328   4572      7  0.000  0.000  0.382  0.000   0.75  62.12   0.53      0   4572     39.9   0.00   0.00   1.17   4.00   4.00   4.00   4.00   3.73   3.94   1.29   0.00   0.00   0.00      0      0      0       0     867
 1971 029   166   106   18.0      5   0.79   2045   2015   2962   3149   8754   1434  206.6  0.338   4694      7  0.000  0.000  0.387  0.000   0.74  63.11   0.54      0   4694     38.5   0.00   0.00   1.17   4.00   4.00   4.00   4.00   3.73   3.94   1.29   0.00   0.00   0.00      0      0      0       0     883
 1971 030   167   107   18.0      5   0.76   2045   2022   3084   3137   8882   1434  215.1  0.347   4815      7  0.000  0.000  0.394  0.000   0.72  64.04   0.54      0   4815     37.3   0.00   0.00   1.18   3.99   3.99   3.99   3.98   3.72   3.92   1.28   0.00   0.00   0.00      0      0      0       0     899
 1971 031   168   108   18.0      5   0.74   2045   2025   3206   3123   9007   1434  223.6  0.356   4937      7  0.000  0.000  0.398  0.000   0.71  64.93   0.55      0   4937     36.0   0.00   0.00   1.19   3.98   3.98   3.97   3.97   3.71   3.90   1.27   0.00   0.00   0.00      0      0      0       0     914
 1971 032   169   109   18.0      5   0.71   2045   1990   3328   3107   9094   1434  232.1  0.366   5059      7  0.000  0.000  0.411  0.000   0.70  65.77   0.56      0   5059     34.8   0.00   0.00   1.19   3.98   3.98   3.97   3.97   3.71   3.90   1.27   0.00   0.00   0.00      0      0      0       0     930
 1971 033   170   110   18.0      5   0.69   2045   1990   3450   3092   9216   1434  240.6  0.374   5181      7  0.000  0.000  0.424  0.000   0.68  66.58   0.56      0   5181     33.6   0.00   0.00   1.20   3.96   3.96   3.95   3.95   3.69   3.88   1.27   0.00   0.00   0.00      0      0      0       0     945
 1971 034   171   111   18.0      5   0.66   2045   1970   3571   3076   9318   1434  249.1  0.383   5303      7  0.000  0.000  0.426  0.000   0.67  67.35   0.57      0   5303     32.5   0.00   0.00   1.20   3.96   3.96   3.95   3.95   3.69   3.88   1.27   0.00   0.00   0.00      0      0      0       0     961
 1971 035   172   112   18.0      5   0.64   2045   1897   3693   3061   9367   1434  257.6  0.394   5425      7  0.000  0.000  0.439  0.000   0.67  68.08   0.58      0   5425     31.3   0.00   0.00   1.20   3.96   3.96   3.95   3.95   3.69   3.88   1.27   0.00   0.00   0.00      0      0      0       0     976
 1971 036   173   113   18.0      5   0.62   2045   1825   3815   3046   9416   1434  266.1  0.405   5547      7  0.000  0.000  0.449  0.000   0.67  68.78   0.59      0   5547     30.2   0.00   0.00   1.20   3.96   3.96   3.95   3.95   3.69   3.88   1.27   0.00   0.00   0.00      0      0      0       0     992
 1971 037   174   114   18.0      5   0.60   2045   1795   3937   3030   9508   1434  274.6  0.414   5669      7  0.000  0.000  0.451  0.008   0.66  69.45   0.60      0   5669     29.2   0.00   0.00   1.20   3.96   3.96   3.95   3.95   3.69   3.88   1.27   0.00   0.00   0.00      0      0      0       0    1007
 1971 038   175   115   18.0      5   0.58   2045   1726   4059   3015   9561   1434  283.1  0.425   5791      7  0.000  0.000  0.444  0.000   0.66  70.10   0.61      0   5791     28.1   0.00   0.00   1.20   3.96   3.96   3.95   3.95   3.69   3.88   1.27   0.00   0.00   0.00      0      0      0       0    1022
 1971 039   176   116   18.0      5   0.55   2045   1699   4181   3000   9656   1434  291.6  0.433   5912      7  0.000  0.000  0.441  0.000   0.66  70.71   0.61      0   5912     27.1   0.00   0.00   1.20   3.96   3.96   3.95   3.95   3.69   3.88   1.27   0.00   0.00   0.00      0      0      0       0    1037
 1971 040   177   117   18.0      5   0.54   2045   1676   4303   2985   9755   1434  300.1  0.441   6034      7  0.000  0.000  0.430  0.000   0.65  71.30   0.62      0   6034     26.2   0.00   0.00   1.20   3.96   3.96   3.95   3.95   3.69   3.88   1.27   0.00   0.00   0.00      0      0      0       0    1052
 1971 041   178   118   18.0      5   0.52   2045   1648   4425   2970   9849   1434  308.6  0.449   6156      7  0.000  0.000  0.434  0.000   0.65  71.87   0.63      0   6156     25.3   0.00   0.00   1.20   3.96   3.96   3.95   3.95   3.69   3.88   1.27   0.00   0.00   0.00      0      0      0       0    1067
 1971 042   179   119   18.0      5   0.50   2045   1608   4547   2955   9931   1434  317.1  0.458   6278      7  0.000  0.000  0.439  0.000   0.64  72.42   0.63      0   6278     24.4   0.00   0.00   1.20   3.96   3.96   3.95   3.95   3.69   3.88   1.27   0.00   0.00   0.00      0      0      0       0    1082
 1971 043   180   120   18.0      5   0.48   2045   1556   4668   2941  10000   1434  325.6  0.467   6400      7  0.000  0.000  0.442  0.000   0.64  72.94   0.64      0   6400     23.6   0.00   0.00   1.20   3.96   3.96   3.95   3.95   3.69   3.88   1.27   0.00   0.00   0.00      0      0      0       0    1097
 1971 044   181   121   18.0      5   0.46   2045   1512   4790   2926  10079   1434  334.1  0.475   6522      7  0.000  0.000  0.444  0.000   0.63  73.45   0.65      0   6522     22.7   0.00   0.00   1.20   3.96   3.96   3.95   3.95   3.69   3.88   1.27   0.00   0.00   0.00      0      0      0       0    1111
 1971 045   182   122   18.0      5   0.45   2045   1470   4912   2911  10158   1434  342.6  0.484   6644      7  0.000  0.000  0.441  0.000   0.63  73.94   0.65      0   6644     21.9   0.00   0.00   1.20   3.96   3.96   3.95   3.95   3.69   3.88   1.27   0.00   0.00   0.00      0      0      0       0    1126
 1971 046   183   123   18.0      5   0.43   2045   1423   5034   2897  10234   1434  351.1  0.492   6766      7  0.000  0.000  0.445  0.000   0.62  74.41   0.66      0   6766     21.2   0.00   0.00   1.20   3.96   3.96   3.95   3.95   3.69   3.88   1.27   0.00   0.00   0.00      0      0      0       0    1141
 1971 047   184   124   18.0      5   0.42   2045   1366   5156   2882  10298   1434  359.6  0.501   6888      7  0.000  0.000  0.448  0.000   0.62  74.86   0.67      0   6888     20.4   0.00   0.00   1.20   3.96   3.96   3.95   3.95   3.69   3.88   1.27   0.00   0.00   0.00      0      0      0       0    1155
 1971 048   185   125   18.0      5   0.40   2045   1309   5192   2868  10277   1434  362.1  0.505   6923      7  0.000  0.000  0.447  0.000   0.64  74.99   0.67      0   6923     19.7   0.00   0.00   1.20   3.96   3.96   3.95   3.95   3.69   3.88   1.27   0.00   0.00   0.00      0      0      0       0    1169
 1971 049   186   126   18.0      5   0.40   2045   1309   5192   2868  10277   1434  362.1  0.505   6923      7  0.000  0.000  0.447  0.000   0.64  74.99   0.67      0   6923     19.7   0.00   0.00   1.20   3.96   3.96   3.95   3.95   3.69   3.88   1.27   0.00   0.00   0.00      0      0      0       0    1169
 1971 050   187   127   18.0      5   0.40   2045   1309   5192   2868  10277   1434  362.1  0.505   6923      7  0.000  0.000  0.447  0.000   0.64  74.99   0.67      0   6923     19.7   0.00   0.00   1.20   3.96   3.96   3.95   3.95   3.69   3.88   1.27   0.00   0.00   0.00      0      0      0       0    1169
 1971 051   188   128   18.0      5   0.40   2045   1309   5192   2868  10277   1434  362.1  0.505   6923      7  0.000  0.000  0.447  0.000   0.64  74.99   0.67      0   6923     19.7   0.00   0.00   1.20   3.96   3.96   3.95   3.95   3.69   3.88   1.27   0.00   0.00   0.00      0      0      0       0    1169
 1971 052   189   129   18.0      5   0.40   2045   1309   5192   2868  10277   1434  362.1  0.505   6923      7  0.000  0.000  0.447  0.000   0.64  74.99   0.67      0   6923     19.7   0.00   0.00   1.20   3.96   3.96   3.95   3.95   3.69   3.88   1.27   0.00   0.00   0.00      0      0      0       0    1169
 1971 053   190   130   18.0      5   0.40   2045   1309   5192   2868  10277   1434  362.1  0.505   6923      7  0.000  0.000  0.447  0.000   0.64  74.99   0.67      0   6923     19.7   0.00   0.00   1.20   3.96   3.96   3.95   3.95   3.69   3.88   1.27   0.00   0.00   0.00      0      0      0       0    1169

*DSSAT Cropping System Model Ver. 4.0.2.000               Oct 18, 2016; 16:14:02

*RUN   2        : SIMPLE TEMPLAT EXPERIMEN
 MODEL          : MZCER040 - Maize           
 EXPERIMENT     : SANT7001 MZ                                                   
 TREATMENT  1   : SIMPLE TEMPLAT EXPERIMEN

@YEAR DOY   DAS   DAP   L#SD   GSTD   LAID   LWAD   SWAD   GWAD   RWAD   CWAD   G#AD   GWGD   HIAD   PWAD   P#AD   WSPD   WSGD   NSTD   EWSD   LN%D   SH%D   HIPD   PWDD   PWTD     SLAD   CHTD   CWID   RDPD   RL1D   RL2D   RL3D   RL4D   RL5D   RL6D   RL7D   RL8D   RL9D   RL10   CDAD   LDAD   SDAD   SNW0C   SNW1C
 1971 288    60     0    0.0      0   0.00      0      0      0      0      0      0    0.0  0.000      0      0  0.000  0.000  0.000  0.000   0.00   0.00   0.00      0      0      0.0   0.00   0.00   0.06   0.00   0.00   0.00   0.00   0.00   0.00   0.00   0.00   0.00   0.00      0      0      0       0       0
 1971 289    61     1    0.0      0   0.00      0      0      0      0      0      0    0.0  0.000      0      0  0.000  0.000  0.000  0.000   0.00   0.00   0.00      0      0      0.0   0.00   0.00   0.08   0.00   0.00   0.00   0.00   0.00   0.00   0.00   0.00   0.00   0.00      0      0      0       0       0
 1971 290    62     2    0.0      0   0.00      0      0      0      0      0      0    0.0  0.000      0      0  0.000  0.000  0.000  0.000   0.00   0.00   0.00      0      0      0.0   0.00   0.00   0.10   0.00   0.00   0.00   0.00   0.00   0.00   0.00   0.00   0.00   0.00      0      0      0       0       0
 1971 291    63     3    0.0      0   0.00      0      0      0      0      0      0    0.0  0.000      0      0  0.000  0.000  0.000  0.000   0.00   0.00   0.00      0      0      0.0   0.00   0.00   0.13   0.00   0.00   0.00   0.00   0.00   0.00   0.00   0.00   0.00   0.00      0      0      0       0       0
 1971 292    64     4    0.0      0   0.00      0      0      0      0      0      0    0.0  0.000      0      0  0.000  0.000  0.000  0.000   0.00   0.00   0.00      0      0      0.0   0.00   0.00   0.14   0.00   0.00   0.00   0.00   0.00   0.00   0.00   0.00   0.00   0.00      0      0      0       0       0
 1971 293    65     5    0.0      0   0.00      0      0      0      0      0      0    0.0  0.000      0      0  0.000  0.000  0.000  0.000   0.00   0.00   0.00      0      0      0.0   0.00   0.00   0.17   0.00   0.00   0.00   0.00   0.00   0.00   0.00   0.00   0.00   0.00      0      0      0       0       0
 1971 294    66     6    0.0      0   0.00      0      0      0      0      0      0    0.0  0.000      0      0  0.000  0.000  0.000  0.000   0.00   0.00   0.00      0      0      0.0   0.00   0.00   0.18   0.00   0.00   0.00   0.00   0.00   0.00   0.00   0.00   0.00   0.00      0      0      0       0       0
 1971 295    67     7    1.0      1   0.00     14     14      0     14     28      0    0.0  0.000      0      0  0.000  0.000  0.012  0.000   4.40   0.00   0.00      0      0     22.3   0.00   0.00   0.19   0.27   0.13   0.02   0.00   0.00   0.00   0.00   0.00   0.00   0.00      0      0      0       0       0
 1971 296    68     8    2.0      1   0.01     14     14      0     14     28      0    0.0  0.000      0      0  0.000  0.000  0.015  0.000   4.52   0.00   0.00      0      0     42.3   0.00   0.00   0.20   0.26   0.14   0.02   0.00   0.00   0.00   0.00   0.00   0.00   0.00      0      0      0       0       0
 1971 297    69     9    2.0      1   0.01     14     14      0     15     28      0    0.0  0.000      0      0  0.000  0.000  0.000  0.000   4.49   0.00   0.00      0      0     61.6   0.00   0.00   0.21   0.26   0.15   0.02   0.00   0.00   0.00   0.00   0.00   0.00   0.00      0      0      0       0       0
 1971 298    70    10    3.0      1   0.01     14     14      0     17     28      0    0.0  0.000      0      0  0.000  0.000  0.000  0.000   4.45   0.00   0.00      0      0     83.1   0.00   0.00   0.22   0.27   0.16   0.03   0.00   0.00   0.00   0.00   0.00   0.00   0.00      0      0      0       0       0
 1971 299    71    11    3.0      1   0.02     14     14      0     19     28      0    0.0  0.000      0      0  0.000  0.000  0.000  0.000   4.40   0.00   0.00      0      0    110.7   0.00   0.00   0.23   0.28   0.19   0.04   0.00   0.00   0.00   0.00   0.00   0.00   0.00      0      0      0       0       0
 1971 300    72    12    3.0      1   0.02     14     14      0     22     28      0    0.0  0.000      0      0  0.000  0.000  0.000  0.000   4.35   0.00   0.00      0      0    146.8   0.00   0.00   0.24   0.28   0.21   0.05   0.00   0.00   0.00   0.00   0.00   0.00   0.00      0      0      0       0       0
 1971 301    73    13    4.0      1   0.04     14     14      0     25     28      0    0.0  0.000      0      0  0.000  0.000  0.000  0.000   4.30   0.00   0.00      0      0    291.6   0.00   0.00   0.26   0.30   0.25   0.07   0.00   0.00   0.00   0.00   0.00   0.00   0.00      0      0      0       0       0
 1971 302    74    14    4.0      1   0.06     20     14      0     29     34      0    0.0  0.000      0      0  0.000  0.000  0.000  0.000   3.46   0.00   0.00      0      0    318.6   0.00   0.00   0.27   0.31   0.28   0.09   0.00   0.00   0.00   0.00   0.00   0.00   0.00      0      0      0       0       1
 1971 303    75    15    5.0      1   0.09     31     14      0     33     45      0    0.0  0.000      0      0  0.000  0.000  0.000  0.000   3.20   0.00   0.00      0      0    292.6   0.00   0.00   0.28   0.32   0.32   0.11   0.00   0.00   0.00   0.00   0.00   0.00   0.00      0      0      0       0       1
 1971 304    76    16    5.0      1   0.12     44     14      0     39     58      0    0.0  0.000      0      0  0.000  0.000  0.000  0.000   3.19   0.00   0.00      0      0    272.0   0.00   0.00   0.29   0.35   0.37   0.15   0.00   0.00   0.00   0.00   0.00   0.00   0.00      0      0      0       0       1
 1971 305    77    17    6.0      1   0.15     59     14      0     50     73      0    0.0  0.000      0      0  0.000  0.000  0.000  0.000   3.24   0.00   0.00      0      0    256.1   0.00   0.00   0.31   0.40   0.46   0.22   0.00   0.00   0.00   0.00   0.00   0.00   0.00      0      0      0       0       1
 1971 306    78    18    6.0      1   0.18     72     14      0     59     86      0    0.0  0.000      0      0  0.000  0.000  0.000  0.000   3.43   0.00   0.00      0      0    245.8   0.00   0.00   0.31   0.44   0.53   0.28   0.00   0.00   0.00   0.00   0.00   0.00   0.00      0      0      0       0       1
 1971 307    79    19    6.0      1   0.21     87     14      0     81    101      0    0.0  0.000      0      0  0.000  0.000  0.000  0.000   3.41   0.00   0.00      0      0    236.4   0.00   0.00   0.32   0.53   0.68   0.41   0.02   0.00   0.00   0.00   0.00   0.00   0.00      0      0      0       0       2
 1971 308    80    20    7.0      1   0.23    101     14      0    109    115      0    0.0  0.000      0      0  0.000  0.000  0.000  0.000   3.50   0.00   0.00      0      0    227.8   0.00   0.00   0.33   0.66   0.88   0.58   0.04   0.00   0.00   0.00   0.00   0.00   0.00      0      0      0       0       2
 1971 309    81    21    7.0      1   0.27    123     14      0    131    137      0    0.0  0.000      0      0  0.000  0.000  0.000  0.000   3.30   0.00   0.00      0      0    219.8   0.00   0.00   0.34   0.76   1.02   0.71   0.06   0.00   0.00   0.00   0.00   0.00   0.00      0      0      0       0       3
 1971 310    82    22    7.0      1   0.30    141     14      0    170    155      0    0.0  0.000      0      0  0.000  0.000  0.000  0.000   3.47   0.00   0.00      0      0    214.1   0.00   0.00   0.35   0.95   1.26   0.94   0.12   0.00   0.00   0.00   0.00   0.00   0.00      0      0      0       0       3
 1971 311    83    23    7.0      2   0.35    154     14      0    203    168      0    0.0  0.000      0      0  0.000  0.000  0.000  0.000   3.54   0.00   0.00      0      0    224.5   0.00   0.00   0.37   1.10   1.44   1.12   0.19   0.00   0.00   0.00   0.00   0.00   0.00      0      0      0       0       4
 1971 312    84    24    8.0      2   0.40    184     14      0    221    198      0    0.0  0.000      0      0  0.000  0.000  0.005  0.000   3.32   0.00   0.00      0      0    216.6   0.00   0.00   0.39   1.18   1.53   1.22   0.24   0.00   0.00   0.00   0.00   0.00   0.00      0      0      0       0       5
 1971 313    85    25    8.0      2   0.46    219     14      0    271    233      0    0.0  0.000      0      0  0.000  0.000  0.000  0.000   3.26   0.00   0.00      0      0    209.0   0.00   0.00   0.40   1.41   1.77   1.48   0.40   0.00   0.00   0.00   0.00   0.00   0.00      0      0      0       0       6
 1971 314    86    26    8.0      2   0.50    246     14      0    295    260      0    0.0  0.000      0      0  0.000  0.000  0.000  0.000   3.79   0.00   0.00      0      0    203.9   0.00   0.00   0.42   1.42   1.91   1.61   0.49   0.00   0.00   0.00   0.00   0.00   0.00      0      0      0       0       8
 1971 315    87    27    9.0      2   0.58    293     14      0    347    307      0    0.0  0.000      0      0  0.000  0.000  0.000  0.000   3.73   0.00   0.00      0      0    196.7   0.00   0.00   0.44   1.43   2.16   1.88   0.73   0.00   0.00   0.00   0.00   0.00   0.00      0      0      0       0       9
 1971 316    88    28    9.0      3   0.64    334     14      0    418    348      0    0.0  0.000      0      0  0.000  0.000  0.022  0.000   3.65   0.00   0.00      0      0    190.2   0.00   0.00   0.45   1.46   2.41   2.25   1.11   0.00   0.00   0.00   0.00   0.00   0.00      0      0      0       0      11
 1971 317    89    29    9.0      3   0.72    393     15      0    489    407      0    0.0  0.000      0      0  0.000  0.000  0.022  0.000   3.55   0.00   0.00      0      0    184.3   0.00   0.00   0.47   1.48   2.55   2.60   1.51   0.07   0.00   0.00   0.00   0.00   0.00      0      0      0       0      13
 1971 318    90    30   10.0      3   0.84    470     17      0    562    486      0    0.0  0.000      0      0  0.000  0.000  0.022  0.000   3.47   0.00   0.00      0      0    178.0   0.00   0.00   0.49   1.52   2.59   2.91   1.93   0.25   0.00   0.00   0.00   0.00   0.00      0      0      0       0      15
 1971 319    91    31   10.0      3   0.95    549     20      0    611    569      0    0.0  0.000      0      0  0.000  0.000  0.022  0.000   3.41   0.00   0.00      0      0    172.6   0.00   0.00   0.51   1.56   2.62   3.03   2.19   0.49   0.00   0.00   0.00   0.00   0.00      0      0      0       0      18
 1971 320    92    32   11.0      3   1.06    632     26      0    669    658      0    0.0  0.000      0      0  0.000  0.000  0.022  0.000   3.24   0.00   0.00      0      0    167.8   0.00   0.00   0.53   1.62   2.67   3.06   2.45   0.89   0.00   0.00   0.00   0.00   0.00      0      0      0       0      21
 1971 321    93    33   11.0      3   1.16    708     34      0    744    742      0    0.0  0.000      0      0  0.000  0.000  0.022  0.000   3.07   0.00   0.00      0      0    163.9   0.00   0.00   0.55   1.72   2.77   3.11   2.69   1.48   0.00   0.00   0.00   0.00   0.00      0      0      0       0      24
 1971 322    94    34   11.0      3   1.24    771     42      0    840    813      0    0.0  0.000      0      0  0.000  0.000  0.022  0.000   2.92   0.00   0.00      0      0    161.0   0.00   0.00   0.56   1.87   2.91   3.20   2.88   2.31   0.00   0.00   0.00   0.00   0.00      0      0      0       0      28
 1971 323    95    35   12.0      3   1.35    858     55      0    952    914      0    0.0  0.000      0      0  0.000  0.000  0.023  0.000   2.69   0.00   0.00      0      0    157.4   0.00   0.00   0.57   1.86   3.14   3.33   2.98   3.38   0.00   0.00   0.00   0.00   0.00      0      0      0       0      32
 1971 324    96    36   12.0      3   1.48    962     75      0   1060   1037      0    0.0  0.000      0      0  0.000  0.000  0.029  0.000   2.44   0.00   0.00      0      0    153.7   0.00   0.00   0.59   1.85   3.38   3.48   3.08   4.00   0.00   0.00   0.00   0.00   0.00      0      0      0       0      37
 1971 325    97    37   12.0      3   1.60   1067    100      0   1179   1168      0    0.0  0.000      0      0  0.000  0.000  0.039  0.000   2.22   0.00   0.00      0      0    150.1   0.00   0.00   0.60   1.84   3.68   3.66   3.22   4.00   0.00   0.00   0.00   0.00   0.00      0      0      0       0      42
 1971 326    98    38   13.0      3   1.73   1177    132      0   1296   1309      0    0.0  0.000      0      0  0.000  0.000  0.055  0.000   2.02   0.00   0.00      0      0    146.6   0.00   0.00   0.62   1.69   3.67   3.55   3.09   4.00   0.13   0.00   0.00   0.00   0.00      0      0      0       0      48
 1971 327    99    39   13.0      3   1.86   1300    176      0   1391   1476      0    0.0  0.000      0      0  0.000  0.000  0.073  0.014   1.86   0.00   0.00      0      0    142.8   0.00   0.00   0.63   1.78   3.60   3.41   2.95   4.00   0.32   0.00   0.00   0.00   0.00      0      0      0       0      55
 1971 328   100    40   14.0      3   1.95   1399    218      0   1480   1616      0    0.0  0.000      0      0  0.000  0.000  0.090  0.032   1.77   0.00   0.00      0      0    139.5   0.00   0.00   0.65   1.86   3.55   3.29   2.83   3.91   0.55   0.00   0.00   0.00   0.00      0      0      0       0      62
 1971 329   101    41   14.0      3   2.01   1473    253      0   1594   1726      0    0.0  0.000      0      0  0.000  0.000  0.111  0.050   1.72   0.00   0.00      0      0    136.4   0.00   0.00   0.66   2.01   3.58   3.24   2.77   3.75   0.90   0.00   0.00   0.00   0.00      0      0      0       0      69
 1971 330   102    42   14.0      3   2.07   1557    298      0   1684   1856      0    0.0  0.000      0      0  0.000  0.000  0.123  0.069   1.67   0.00   0.00      0      0    133.2   0.00   0.00   0.67   2.10   3.58   3.18   2.70   3.60   1.19   0.00   0.00   0.00   0.00      0      0      0       0      77
 1971 331   103    43   15.0      3   2.16   1666    366      0   1788   2033      0    0.0  0.000      0      0  0.000  0.000  0.126  0.059   1.59   0.00   0.00      0      0    129.9   0.00   0.00   0.69   2.25   3.66   3.20   2.70   3.53   1.56   0.00   0.00   0.00   0.00      0      0      0       0      86
 1971 332   104    44   15.0      3   2.23   1759    433      0   1803   2192      0    0.0  0.000      0      0  0.000  0.000  0.130  0.048   1.53   0.00   0.00      0      0    126.8   0.00   0.00   0.70   2.23   3.60   3.14   2.64   3.44   1.61   0.00   0.00   0.00   0.00      0      0      0       0      95
 1971 333   105    45   15.0      3   2.29   1847    503      0   1872   2350      0    0.0  0.000      0      0  0.000  0.000  0.143  0.007   1.48   0.00   0.00      0      0    123.9   0.00   0.00   0.71   2.38   3.74   3.22   2.70   3.47   1.90   0.00   0.00   0.00   0.00      0      0      0       0     104
 1971 334   106    46   16.0      3   2.45   2041    675      0   1883   2716      0    0.0  0.000      0      0  0.000  0.000  0.151  0.000   1.32   0.00   0.00      0      0    120.2   0.00   0.00   0.73   2.41   3.76   3.23   2.70   3.47   1.97   0.00   0.00   0.00   0.00      0      0      0       0     113
 1971 335   107    47   16.0      3   2.54   2170    866      0   1918   3036      0    0.0  0.000      0      0  0.000  0.000  0.157  0.000   1.22   0.00   0.00      0      0    117.2   0.00   0.00   0.75   2.39   3.84   3.27   2.74   3.48   2.14   0.00   0.00   0.00   0.00      0      0      0       0     122
 1971 336   108    48   17.0      3   2.56   2249   1013      0   1921   3262      0    0.0  0.000      0      0  0.000  0.000  0.196  0.000   1.16   0.00   0.00      0      0    113.9   0.00   0.00   0.77   2.41   3.85   3.28   2.74   3.48   2.18   0.00   0.00   0.00   0.00      0      0      0       0     132
 1971 337   109    49   17.0      3   2.53   2287   1091      0   1998   3378      0    0.0  0.000      0      0  0.000  0.083  0.288  0.000   1.15   0.00   0.00      0      0    110.6   0.00   0.00   0.78   2.40   4.00   3.40   2.82   3.54   2.50   0.00   0.00   0.00   0.00      0      0      0       0     142
 1971 338   110    50   17.0      3   2.46   2302   1123      0   2129   3425      0    0.0  0.000      0      0  0.000  0.308  0.351  0.000   1.15   0.00   0.00      0      0    107.1   0.00   0.00   0.78   2.38   4.00   3.62   2.99   3.65   3.01   0.00   0.00   0.00   0.00      0      0      0       0     152
 1971 339   111    51   17.0      3   2.25   2320   1165      0   2248   3485      0    0.0  0.000      0      0  0.147  0.432  0.361  0.000   1.15   0.00   0.00      0      0     96.8   0.00   0.00   0.79   2.37   4.00   3.85   3.15   3.77   3.43   0.00   0.00   0.00   0.00      0      0      0       0     162
 1971 340   112    52   18.0      3   2.21   2352   1244      0   2322   3597      0    0.0  0.000      0      0  0.259  0.506  0.332  0.000   1.13   0.00   0.00      0      0     94.0   0.00   0.00   0.80   2.36   4.00   4.00   3.27   3.84   3.68   0.00   0.00   0.00   0.00      0      0      0       0     173
 1971 341   113    53   18.0      3   2.17   2381   1318      0   2394   3699      0    0.0  0.000      0      0  0.436  0.624  0.312  0.000   1.11   0.00   0.00      0      0     91.3   0.00   0.00   0.81   2.35   4.00   4.00   3.39   3.93   3.89   0.00   0.00   0.00   0.00      0      0      0       0     185
 1971 342   114    54   18.0      3   2.14   2415   1415      0   2423   3830      0    0.0  0.000      0      0  0.458  0.639  0.307  0.000   1.09   0.00   0.00      0      0     88.8   0.00   0.00   0.82   2.34   4.00   4.00   3.45   3.96   3.97   0.00   0.00   0.00   0.00      0      0      0       0     197
 1971 343   115    55   19.0      3   2.11   2444   1503      0   2445   3947      0    0.0  0.000      0      0  0.520  0.680  0.300  0.000   1.06   0.00   0.00      0      0     86.4   0.00   0.00   0.84   2.32   4.00   4.00   3.50   3.99   4.00   0.00   0.00   0.00   0.00      0      0      0       0     209
 1971 344   116    56   19.0      3   2.06   2464   1566      0   2471   4030      0    0.0  0.000      0      0  0.638  0.759  0.305  0.000   1.05   0.00   0.00      0      0     83.8   0.00   0.00   0.85   2.31   4.00   4.00   3.56   4.00   4.00   0.00   0.00   0.00   0.00      0      0      0       0     221
 1971 345   117    57   19.0      3   2.03   2494   1662      0   2466   4156      0    0.0  0.000      0      0  0.551  0.701  0.318  0.000   1.02   0.00   0.00      0      0     81.5   0.00   0.00   0.86   2.30   4.00   4.00   3.56   3.99   3.99   0.00   0.00   0.00   0.00      0      0      0       0     234
 1971 346   118    58   19.0      3   2.00   2518   1738      0   2476   4256      0    0.0  0.000      0      0  0.324  0.550  0.327  0.000   1.01   0.00   0.00      0      0     79.3   0.00   0.00   0.87   2.39   4.00   4.00   3.59   4.00   3.99   0.00   0.00   0.00   0.00      0      0      0       0     246
 1971 347   119    59   19.0      3   1.96   2540   1810      0   2551   4350      0    0.0  0.000      0      0  0.000  0.000  0.340  0.000   1.00   0.00   0.00      0      0     77.0   0.00   0.00   0.88   2.78   4.00   4.00   3.76   4.00   4.00   0.00   0.00   0.00   0.00      0      0      0       0     258
 1971 348   120    60   19.0      3   1.91   2560   1871      0   2635   4431      0    0.0  0.000      0      0  0.000  0.000  0.356  0.000   0.99   0.00   0.00      0      0     74.8   0.00   0.00   0.89   3.20   4.00   4.00   3.94   4.00   4.00   0.00   0.00   0.00   0.00      0      0      0       0     271
 1971 349   121    61   19.0      3   1.89   2593   1975      0   2670   4568      0    0.0  0.000      0      0  0.409  0.606  0.362  0.000   0.96   0.00   0.00      0      0     72.8   0.00   0.00   0.90   3.18   4.00   4.00   4.00   4.00   4.00   0.00   0.00   0.00   0.00      0      0      0       0     284
 1971 350   122    62   19.0      3   1.84   2613   2041      0   2671   4654      0    0.0  0.000      0      0  0.706  0.804  0.362  0.000   0.95   0.00   0.00      0      0     70.5   0.00   0.00   0.91   3.23   4.00   4.00   4.00   4.00   3.99   0.00   0.00   0.00   0.00      0      0      0       0     298
 1971 351   123    63   19.0      4   1.78   2583   1741      0   2693   4767      0    0.0  0.000    443      0  0.000  0.048  0.381  0.000   1.03   0.00   0.09      0    443     69.0   0.00   0.00   0.92   3.35   4.00   4.00   4.00   4.00   4.00   0.03   0.00   0.00   0.00      0      0      0       0     311
 1971 352   124    64   19.0      4   1.72   2550   1779      0   2734   4867      0    0.0  0.000    538      0  0.000  0.000  0.378  0.000   1.03   0.00   0.11      0    538     67.6   0.00   0.00   0.93   3.54   4.00   4.00   4.00   4.00   4.00   0.09   0.00   0.00   0.00      0      0      0       0     324
 1971 353   125    65   19.0      4   1.68   2515   1813      0   2725   4950      0    0.0  0.000    622      0  0.000  0.000  0.239  0.000   1.05   0.00   0.13      0    622     66.7   0.00   0.00   0.95   3.54   4.00   3.99   3.99   3.99   3.98   0.09   0.00   0.00   0.00      0      0      0       0     338
 1971 354   126    66   19.0      4   1.64   2477   1860      0   2719   5079      0    0.0  0.000    741      0  0.000  0.000  0.201  0.000   1.06   0.00   0.15      0    741     66.0   0.00   0.00   0.96   3.54   4.00   3.99   3.98   3.97   3.97   0.10   0.00   0.00   0.00      0      0      0       0     352
 1971 355   127    67   19.0      4   1.60   2438   1893      0   2777   5155      0    0.0  0.000    824      0  0.000  0.000  0.191  0.000   1.07   0.00   0.16      0    824     65.5   0.00   0.00   0.97   3.76   4.00   4.00   4.00   4.00   4.00   0.22   0.00   0.00   0.00      0      0      0       0     365
 1971 356   128    68   19.0      4   1.56   2397   1927      0   2868   5233      0    0.0  0.000    908      0  0.000  0.000  0.184  0.000   1.08   0.00   0.17      0    908     65.1   0.00   0.00   0.97   4.00   4.00   4.00   4.00   4.00   4.00   0.41   0.00   0.00   0.00      0      0      0       0     379
 1971 357   129    69   19.0      4   1.53   2355   1974      0   2936   5353      0    0.0  0.000   1024      0  0.000  0.000  0.172  0.000   1.10   0.00   0.19      0   1024     64.8   0.00   0.00   0.98   4.00   4.00   4.00   4.00   4.00   4.00   0.57   0.00   0.00   0.00      0      0      0       0     394
 1971 358   130    70   19.0      4   1.50   2310   2036      0   2974   5525      0    0.0  0.000   1179      0  0.000  0.000  0.160  0.000   1.11   0.00   0.21      0   1179     64.7   0.00   0.00   0.99   4.00   4.00   4.00   4.00   4.00   4.00   0.67   0.00   0.00   0.00      0      0      0       0     408
 1971 359   131    71   19.0      4   1.47   2263   2104      0   3002   5718      0    0.0  0.000   1350      0  0.000  0.000  0.149  0.000   1.12   0.00   0.24      0   1350     64.9   0.00   0.00   1.01   3.98   4.00   4.00   4.00   4.00   4.00   0.76   0.00   0.00   0.00      0      0      0       0     423
 1971 360   132    72   19.0      4   1.44   2213   2178      0   3014   5926      0    0.0  0.000   1535      0  0.000  0.000  0.139  0.000   1.12   0.00   0.26      0   1535     65.2   0.00   0.00   1.02   3.96   4.00   4.00   4.00   4.00   4.00   0.82   0.00   0.00   0.00      0      0      0       0     438
 1971 361   133    73   19.0      5   1.41   2213   2178    178   3026   6104   1341   13.3  0.029   1713      7  0.000  0.000  0.211  0.000   1.09  10.39   0.28      0   1713     63.5   0.00   0.00   1.03   3.94   4.00   4.00   4.00   4.00   4.00   0.88   0.00   0.00   0.00      0      0      0       0     453
 1971 362   134    74   19.0      5   1.37   2213   2178    292   3050   6218   1341   21.8  0.047   1827      7  0.000  0.000  0.234  0.000   1.08  15.99   0.29      0   1827     61.8   0.00   0.00   1.05   3.92   4.00   4.00   4.00   4.00   4.00   0.96   0.00   0.00   0.00      0      0      0       0     468
 1971 363   135    75   19.0      5   1.33   2213   2178    406   3063   6332   1341   30.3  0.064   1941      7  0.000  0.000  0.229  0.000   1.06  20.92   0.31      0   1941     60.2   0.00   0.00   1.06   3.90   4.00   4.00   4.00   4.00   4.00   1.03   0.00   0.00   0.00      0      0      0       0     484
 1971 364   136    76   19.0      5   1.30   2213   2178    520   3078   6446   1341   38.8  0.081   2055      7  0.000  0.000  0.226  0.000   1.04  25.31   0.32      0   2055     58.7   0.00   0.00   1.08   3.88   4.00   4.00   4.00   4.00   4.00   1.09   0.00   0.00   0.00      0      0      0       0     499
 1971 365   137    77   19.0      5   1.26   2213   2178    634   3087   6560   1341   47.3  0.097   2169      7  0.000  0.000  0.226  0.000   1.03  29.23   0.33      0   2169     57.1   0.00   0.00   1.09   3.86   4.00   4.00   4.00   4.00   4.00   1.14   0.00   0.00   0.00      0      0      0       0     514
 1972 001   138    78   19.0      5   1.23   2213   2178    748   3096   6674   1341   55.8  0.112   2283      7  0.000  0.000  0.226  0.000   1.01  32.77   0.34      0   2283     55.6   0.00   0.00   1.11   3.84   4.00   4.00   4.00   3.98   4.00   1.20   0.00   0.00   0.00      0      0      0       0     530
 1972 002   139    79   19.0      5   1.20   2213   2178    862   3096   6788   1341   64.3  0.127   2397      7  0.000  0.030  0.226  0.000   0.99  35.96   0.35      0   2397     54.2   0.00   0.00   1.12   3.87   4.00   4.00   4.00   3.96   3.99   1.23   0.00   0.00   0.00      0      0      0       0     545
 1972 003   140    80   19.0      5   1.17   2213   2178    976   3082   6902   1341   72.8  0.141   2511      7  0.000  0.000  0.226  0.000   0.98  38.87   0.36      0   2511     52.8   0.00   0.00   1.13   3.86   3.98   3.98   3.98   3.94   3.97   1.22   0.00   0.00   0.00      0      0      0       0     561
 1972 004   141    81   19.0      5   1.14   2213   2178   1090   3084   7016   1341   81.3  0.155   2625      7  0.000  0.000  0.233  0.000   0.96  41.53   0.37      0   2625     51.4   0.00   0.00   1.14   3.90   4.00   4.00   3.99   3.92   3.96   1.25   0.00   0.00   0.00      0      0      0       0     576
 1972 005   142    82   19.0      5   1.11   2213   2178   1204   3090   7130   1341   89.8  0.169   2739      7  0.000  0.000  0.245  0.000   0.94  43.96   0.38      0   2739     50.0   0.00   0.00   1.15   3.95   4.00   4.00   4.00   3.91   3.96   1.29   0.00   0.00   0.00      0      0      0       0     592
 1972 006   143    83   19.0      5   1.08   2213   2178   1318   3101   7244   1341   98.3  0.182   2853      7  0.000  0.000  0.254  0.000   0.92  46.20   0.39      0   2853     48.6   0.00   0.00   1.16   4.00   4.00   4.00   4.00   3.89   3.96   1.33   0.00   0.00   0.00      0      0      0       0     607
 1972 007   144    84   19.0      5   1.05   2213   2178   1432   3115   7358   1341  106.8  0.195   2967      7  0.000  0.000  0.264  0.000   0.90  48.27   0.40      0   2967     47.3   0.00   0.00   1.17   3.98   4.00   4.00   4.00   3.87   3.97   1.38   0.00   0.00   0.00      0      0      0       0     622
 1972 008   145    85   19.0      5   1.02   2213   2178   1546   3125   7472   1341  115.3  0.207   3081      7  0.000  0.000  0.275  0.000   0.89  50.18   0.41      0   3081     46.0   0.00   0.00   1.17   3.96   4.00   4.00   4.00   3.85   3.97   1.42   0.00   0.00   0.00      0      0      0       0     638
 1972 009   146    86   19.0      5   0.99   2213   2178   1660   3131   7586   1341  123.8  0.219   3195      7  0.000  0.000  0.283  0.000   0.87  51.96   0.42      0   3195     44.7   0.00   0.00   1.19   3.94   4.00   4.00   4.00   3.84   3.97   1.45   0.00   0.00   0.00      0      0      0       0     654
 1972 010   147    87   19.0      5   0.96   2213   2178   1769   3139   7695   1341  131.9  0.230   3304      7  0.077  0.385  0.290  0.000   0.85  53.55   0.43      0   3304     43.4   0.00   0.00   1.20   3.92   4.00   4.00   4.00   3.82   3.97   1.47   0.00   0.00   0.00      0      0      0       0     669
 1972 011   148    88   19.0      5   0.93   2213   2178   1872   3134   7798   1341  139.6  0.240   3407      7  0.184  0.456  0.298  0.000   0.83  54.94   0.44      0   3407     42.1   0.00   0.00   1.21   3.94   4.00   4.00   4.00   3.80   3.96   1.48   0.00   0.00   0.00      0      0      0       0     685
 1972 012   149    89   19.0      5   0.90   2213   2178   1986   3126   7912   1341  148.1  0.251   3521      7  0.000  0.000  0.303  0.000   0.82  56.40   0.44      0   3521     40.9   0.00   0.00   1.22   3.96   4.00   4.00   4.00   3.78   3.95   1.48   0.00   0.00   0.00      0      0      0       0     701
 1972 013   150    90   19.0      5   0.88   2213   2178   2100   3127   8026   1341  156.6  0.262   3635      7  0.000  0.000  0.314  0.000   0.80  57.77   0.45      0   3635     39.7   0.00   0.00   1.23   4.00   4.00   4.00   4.00   3.76   3.95   1.48   0.00   0.00   0.00      0      0      0       0     716
 1972 014   151    91   19.0      5   0.85   2213   2178   2214   3123   8140   1341  165.1  0.272   3749      7  0.000  0.000  0.323  0.000   0.78  59.05   0.46      0   3749     38.5   0.00   0.00   1.24   4.00   4.00   4.00   4.00   3.74   3.94   1.48   0.01   0.00   0.00      0      0      0       0     732
 1972 015   152    92   19.0      5   0.83   2213   2174   2328   3108   8249   1341  173.6  0.282   3863      7  0.000  0.000  0.334  0.000   0.76  60.26   0.47      0   3863     37.3   0.00   0.00   1.24   4.00   4.00   4.00   4.00   3.74   3.94   1.48   0.01   0.00   0.00      0      0      0       0     748
 1972 016   153    93   19.0      5   0.80   2213   2178   2442   3098   8368   1341  182.1  0.292   3977      7  0.000  0.000  0.346  0.000   0.75  61.40   0.48      0   3977     36.1   0.00   0.00   1.25   4.00   4.00   4.00   3.99   3.72   3.92   1.48   0.01   0.00   0.00      0      0      0       0     763
 1972 017   154    94   19.0      5   0.77   2213   2178   2556   3094   8482   1341  190.6  0.301   4091      7  0.000  0.000  0.358  0.000   0.73  62.48   0.48      0   4091     35.0   0.00   0.00   1.26   4.00   4.00   4.00   3.99   3.71   3.91   1.48   0.01   0.00   0.00      0      0      0       0     779
 1972 018   155    95   19.0      5   0.75   2213   2178   2670   3081   8596   1341  199.1  0.311   4205      7  0.000  0.000  0.371  0.000   0.71  63.49   0.49      0   4205     33.9   0.00   0.00   1.27   3.98   3.99   3.99   3.98   3.69   3.90   1.47   0.01   0.00   0.00      0      0      0       0     794
 1972 019   156    96   19.0      5   0.72   2213   2174   2784   3066   8706   1341  207.6  0.320   4319      7  0.000  0.000  0.384  0.000   0.70  64.46   0.50      0   4319     32.8   0.00   0.00   1.27   3.98   3.99   3.99   3.98   3.69   3.90   1.47   0.01   0.00   0.00      0      0      0       0     809
 1972 020   157    97   19.0      5   0.70   2213   2178   2898   3056   8824   1341  216.1  0.328   4433      7  0.000  0.000  0.400  0.000   0.68  65.37   0.50      0   4433     31.7   0.00   0.00   1.27   3.96   4.00   3.98   3.97   3.67   3.88   1.46   0.02   0.00   0.00      0      0      0       0     825
 1972 021   158    98   19.0      5   0.68   2213   2178   3007   3046   8933   1341  224.2  0.337   4542      7  0.068  0.379  0.416  0.000   0.66  66.21   0.51      0   4542     30.6   0.00   0.00   1.28   3.94   4.00   3.98   3.96   3.65   3.87   1.46   0.02   0.00   0.00      0      0      0       0     840
 1972 022   159    99   19.0      5   0.65   2213   2178   3109   3036   9034   1341  231.8  0.344   4643      7  0.206  0.471  0.435  0.000   0.65  66.94   0.51      0   4643     29.5   0.00   0.00   1.29   3.92   4.00   3.98   3.94   3.63   3.85   1.46   0.03   0.00   0.00      0      0      0       0     855
 1972 023   160   100   19.0      5   0.63   2213   2178   3200   3027   9126   1341  238.6  0.351   4735      7  0.352  0.568  0.451  0.000   0.63  67.59   0.52      0   4735     28.5   0.00   0.00   1.30   3.90   4.00   3.98   3.92   3.61   3.84   1.45   0.04   0.00   0.00      0      0      0       0     871
 1972 024   161   101   19.0      5   0.61   2213   2178   3295   3016   9221   1341  245.7  0.357   4830      7  0.310  0.541  0.466  0.000   0.62  68.22   0.52      0   4830     27.4   0.00   0.00   1.31   3.88   4.00   3.97   3.90   3.60   3.83   1.45   0.04   0.00   0.00      0      0      0       0     886
 1972 025   162   102   19.0      5   0.59   2213   2178   3377   3005   9303   1341  251.8  0.363   4912      7  0.503  0.669  0.482  0.000   0.61  68.75   0.53      0   4912     26.4   0.00   0.00   1.32   3.86   4.00   3.96   3.88   3.58   3.81   1.44   0.05   0.00   0.00      0      0      0       0     901
 1972 026   163   103   19.0      5   0.56   2213   2122   3491   2990   9362   1341  260.3  0.373   5026      7  0.000  0.305  0.498  0.000   0.60  69.46   0.54      0   5026     25.5   0.00   0.00   1.32   3.86   4.00   3.96   3.88   3.58   3.81   1.44   0.05   0.00   0.00      0      0      0       0     916
 1972 027   164   104   19.0      5   0.54   2213   2055   3605   2975   9408   1341  268.8  0.383   5140      7  0.000  0.103  0.526  0.000   0.59  70.14   0.55      0   5140     24.5   0.00   0.00   1.32   3.86   4.00   3.96   3.88   3.58   3.81   1.44   0.05   0.00   0.00      0      0      0       0     931
 1972 028   165   105   19.0      5   0.52   2213   2040   3699   2960   9487   1341  275.8  0.390   5234      7  0.329  0.553  0.537  0.000   0.58  70.67   0.55      0   5234     23.5   0.00   0.00   1.32   3.86   4.00   3.96   3.88   3.58   3.81   1.44   0.05   0.00   0.00      0      0      0       0     946
 1972 029   166   106   19.0      5   0.50   2213   2030   3788   2945   9566   1341  282.5  0.396   5323      7  0.388  0.592  0.538  0.000   0.57  71.17   0.56      0   5323     22.6   0.00   0.00   1.32   3.86   4.00   3.96   3.88   3.58   3.81   1.44   0.05   0.00   0.00      0      0      0       0     960
 1972 030   167   107   19.0      5   0.48   2213   2018   3876   2930   9642   1341  289.0  0.402   5411      7  0.424  0.616  0.555  0.000   0.56  71.63   0.56      0   5411     21.7   0.00   0.00   1.32   3.86   4.00   3.96   3.88   3.58   3.81   1.44   0.05   0.00   0.00      0      0      0       0     975
 1972 031   168   108   19.0      5   0.48   2213   2018   3876   2930   9642   1341  289.0  0.402   5411      7  0.424  0.616  0.555  0.000   0.56  71.63   0.56      0   5411     21.7   0.00   0.00   1.32   3.86   4.00   3.96   3.88   3.58   3.81   1.44   0.05   0.00   0.00      0      0      0       0     975
 1972 032   169   109   19.0      5   0.48   2213   2018   3876   2930   9642   1341  289.0  0.402   5411      7  0.424  0.616  0.555  0.000   0.56  71.63   0.56      0   5411     21.7   0.00   0.00   1.32   3.86   4.00   3.96   3.88   3.58   3.81   1.44   0.05   0.00   0.00      0      0      0       0     975
 1972 033   170   110   19.0      5   0.48   2213   2018   3876   2930   9642   1341  289.0  0.402   5411      7  0.424  0.616  0.555  0.000   0.56  71.63   0.56      0   5411     21.7   0.00   0.00   1.32   3.86   4.00   3.96   3.88   3.58   3.81   1.44   0.05   0.00   0.00      0      0      0       0     975
 1972 034   171   111   19.0      5   0.48   2213   2018   3876   2930   9642   1341  289.0  0.402   5411      7  0.424  0.616  0.555  0.000   0.56  71.63   0.56      0   5411     21.7   0.00   0.00   1.32   3.86   4.00   3.96   3.88   3.58   3.81   1.44   0.05   0.00   0.00      0      0      0       0     975

*DSSAT Cropping System Model Ver. 4.0.2.000               Oct 18, 2016; 16:14:02

*RUN   3        : SIMPLE TEMPLAT EXPERIMEN
 MODEL          : MZCER040 - Maize           
 EXPERIMENT     : SANT7001 MZ                                                   
 TREATMENT  1   : SIMPLE TEMPLAT EXPERIMEN

@YEAR DOY   DAS   DAP   L#SD   GSTD   LAID   LWAD   SWAD   GWAD   RWAD   CWAD   G#AD   GWGD   HIAD   PWAD   P#AD   WSPD   WSGD   NSTD   EWSD   LN%D   SH%D   HIPD   PWDD   PWTD     SLAD   CHTD   CWID   RDPD   RL1D   RL2D   RL3D   RL4D   RL5D   RL6D   RL7D   RL8D   RL9D   RL10   CDAD   LDAD   SDAD   SNW0C   SNW1C
 1972 288    60     0    0.0      0   0.00      0      0      0      0      0      0    0.0  0.000      0      0  0.000  0.000  0.000  0.000   0.00   0.00   0.00      0      0      0.0   0.00   0.00   0.06   0.00   0.00   0.00   0.00   0.00   0.00   0.00   0.00   0.00   0.00      0      0      0       0       0
 1972 289    61     1    0.0      0   0.00      0      0      0      0      0      0    0.0  0.000      0      0  0.000  0.000  0.000  0.000   0.00   0.00   0.00      0      0      0.0   0.00   0.00   0.08   0.00   0.00   0.00   0.00   0.00   0.00   0.00   0.00   0.00   0.00      0      0      0       0       0
 1972 290    62     2    0.0      0   0.00      0      0      0      0      0      0    0.0  0.000      0      0  0.000  0.000  0.000  0.000   0.00   0.00   0.00      0      0      0.0   0.00   0.00   0.10   0.00   0.00   0.00   0.00   0.00   0.00   0.00   0.00   0.00   0.00      0      0      0       0       0
 1972 291    63     3    0.0      0   0.00      0      0      0      0      0      0    0.0  0.000      0      0  0.000  0.000  0.000  0.000   0.00   0.00   0.00      0      0      0.0   0.00   0.00   0.12   0.00   0.00   0.00   0.00   0.00   0.00   0.00   0.00   0.00   0.00      0      0      0       0       0
 1972 292    64     4    0.0      0   0.00      0      0      0      0      0      0    0.0  0.000      0      0  0.000  0.000  0.000  0.000   0.00   0.00   0.00      0      0      0.0   0.00   0.00   0.14   0.00   0.00   0.00   0.00   0.00   0.00   0.00   0.00   0.00   0.00      0      0      0       0       0
 1972 293    65     5    0.0      0   0.00      0      0      0      0      0      0    0.0  0.000      0      0  0.000  0.000  0.000  0.000   0.00   0.00   0.00      0      0      0.0   0.00   0.00   0.16   0.00   0.00   0.00   0.00   0.00   0.00   0.00   0.00   0.00   0.00      0      0      0       0       0
[...]
 1979 348   120    60   17.0      3   2.90   2285   1686      0   1694   3971      0    0.0  0.000      0      0  0.000  0.000  0.022  0.022   2.37   0.00   0.00      0      0    127.1   0.00   0.00   0.78   1.46   2.35   2.44   1.55   0.73   0.31   0.00   0.00   0.00   0.00      0      0      0       0     161
 1979 349   121    61   17.0      3   2.94   2325   1801      0   1856   4126      0    0.0  0.000      0      0  0.000  0.000  0.022  0.059   2.32   0.00   0.00      0      0    126.4   0.00   0.00   0.79   1.46   2.28   2.33   1.77   1.01   0.89   0.00   0.00   0.00   0.00      0      0      0       0     169
 1979 350   122    62   17.0      3   2.98   2370   1933      0   2013   4303      0    0.0  0.000      0      0  0.000  0.000  0.025  0.137   2.26   0.00   0.00      0      0    125.6   0.00   0.00   0.80   1.48   2.24   2.24   1.85   1.20   1.49   0.00   0.00   0.00   0.00      0      0      0       0     178
 1979 351   123    63   18.0      3   3.02   2423   2099      0   2107   4522      0    0.0  0.000      0      0  0.000  0.000  0.026  0.189   2.18   0.00   0.00      0      0    124.7   0.00   0.00   0.81   1.47   2.17   2.14   1.77   1.24   1.87   0.00   0.00   0.00   0.00      0      0      0       0     188
 1979 352   124    64   18.0      3   3.07   2476   2271      0   2109   4747      0    0.0  0.000      0      0  0.000  0.000  0.027  0.213   2.11   0.00   0.00      0      0    123.9   0.00   0.00   0.82   1.38   2.04   2.00   1.66   1.16   1.80   0.00   0.00   0.00   0.00      0      0      0       0     199
 1979 353   125    65   18.0      3   3.13   2544   2489      0   2187   5033      0    0.0  0.000      0      0  0.000  0.000  0.029  0.194   2.02   0.00   0.00      0      0    122.9   0.00   0.00   0.84   1.38   2.00   1.94   1.60   1.13   2.13   0.00   0.00   0.00   0.00      0      0      0       0     210
 1979 354   126    66   18.0      3   3.19   2621   2733      0   2220   5354      0    0.0  0.000      0      0  0.000  0.000  0.031  0.188   1.93   0.00   0.00      0      0    121.9   0.00   0.00   0.86   1.35   1.94   1.86   1.53   1.08   2.25   0.00   0.00   0.00   0.00      0      0      0       0     220
 1979 355   127    67   18.0      3   3.26   2693   2965      0   2273   5659      0    0.0  0.000      0      0  0.000  0.000  0.034  0.158   1.85   0.00   0.00      0      0    120.9   0.00   0.00   0.87   1.35   1.92   1.82   1.50   1.06   2.47   0.00   0.00   0.00   0.00      0      0      0       0     232
 1979 356   128    68   18.0      3   3.30   2757   3166      0   2369   5922      0    0.0  0.000      0      0  0.000  0.000  0.039  0.112   1.80   0.00   0.00      0      0    119.9   0.00   0.00   0.88   1.43   1.98   1.84   1.51   1.07   2.94   0.00   0.00   0.00   0.00      0      0      0       0     243
 1979 357   129    69   18.0      3   3.35   2815   3349      0   2482   6163      0    0.0  0.000      0      0  0.000  0.000  0.043  0.048   1.75   0.00   0.00      0      0    118.9   0.00   0.00   0.90   1.55   2.09   1.91   1.55   1.10   3.52   0.00   0.00   0.00   0.00      0      0      0       0     255
 1979 358   130    70   18.0      4   3.33   2783   2858      0   2601   6372      0    0.0  0.000    731      0  0.000  0.000  0.047  0.000   1.93   0.00   0.11      0    731    119.5   0.00   0.00   0.91   1.72   2.25   2.01   1.62   1.15   4.00   0.00   0.00   0.00   0.00      0      0      0       0     267
 1979 359   131    71   18.0      4   3.31   2749   2938      0   2672   6618      0    0.0  0.000    931      0  0.000  0.000  0.049  0.000   1.93   0.00   0.14      0    931    120.3   0.00   0.00   0.92   1.83   2.36   2.07   1.67   1.19   4.00   0.02   0.00   0.00   0.00      0      0      0       0     280
 1979 360   132    72   18.0      4   3.29   2714   3017      0   2748   6857      0    0.0  0.000   1127      0  0.000  0.000  0.032  0.000   1.93   0.00   0.16      0   1127    121.4   0.00   0.00   0.93   1.95   2.48   2.15   1.73   1.23   4.00   0.05   0.00   0.00   0.00      0      0      0       0     294
 1979 361   133    73   18.0      4   3.28   2675   3103      0   2829   7123      0    0.0  0.000   1344      0  0.000  0.000  0.029  0.000   1.93   0.00   0.19      0   1344    122.6   0.00   0.00   0.94   2.10   2.63   2.24   1.79   1.28   4.00   0.10   0.00   0.00   0.00      0      0      0       0     307
 1979 362   134    74   18.0      4   3.27   2635   3201      0   2880   7424      0    0.0  0.000   1588      0  0.000  0.000  0.027  0.000   1.93   0.00   0.21      0   1588    124.1   0.00   0.00   0.95   2.21   2.73   2.30   1.84   1.31   4.00   0.15   0.00   0.00   0.00      0      0      0       0     321
 1979 363   135    75   18.0      4   3.26   2591   3303      0   2895   7739      0    0.0  0.000   1844      0  0.000  0.000  0.025  0.000   1.92   0.00   0.24      0   1844    125.8   0.00   0.00   0.96   2.26   2.78   2.33   1.86   1.33   4.00   0.18   0.00   0.00   0.00      0      0      0       0     336
 1979 364   136    76   18.0      4   3.25   2546   3368      0   2987   7919      0    0.0  0.000   2005      0  0.000  0.000  0.024  0.000   1.93   0.00   0.25      0   2005    127.6   0.00   0.00   0.97   2.47   2.99   2.46   1.96   1.40   4.00   0.31   0.00   0.00   0.00      0      0      0       0     350
 1979 365   137    77   18.0      4   3.24   2500   3411      0   3157   8024      0    0.0  0.000   2113      0  0.000  0.000  0.023  0.000   1.93   0.00   0.26      0   2113    129.6   0.00   0.00   0.98   2.89   3.41   2.72   2.15   1.54   4.00   0.56   0.00   0.00   0.00      0      0      0       0     365
 1980 001   138    78   18.0      4   3.23   2453   3472      0   3291   8191      0    0.0  0.000   2266      0  0.000  0.000  0.022  0.000   1.94   0.00   0.28      0   2266    131.8   0.00   0.00   0.98   3.26   3.77   2.95   2.32   1.67   4.00   0.78   0.00   0.00   0.00      0      0      0       0     381
 1980 002   139    79   18.0      4   3.22   2403   3549      0   3390   8410      0    0.0  0.000   2458      0  0.000  0.000  0.022  0.000   1.93   0.00   0.29      0   2458    134.1   0.00   0.00   0.99   3.56   4.00   3.14   2.46   1.77   4.00   0.97   0.00   0.00   0.00      0      0      0       0     397
 1980 003   140    80   18.0      4   3.21   2351   3634      0   3455   8657      0    0.0  0.000   2672      0  0.000  0.000  0.022  0.000   1.93   0.00   0.31      0   2672    136.7   0.00   0.00   1.00   3.79   4.00   3.28   2.56   1.85   4.00   1.12   0.00   0.00   0.00      0      0      0       0     414
 1980 004   141    81   18.0      4   3.21   2297   3719      0   3451   8898      0    0.0  0.000   2883      0  0.000  0.000  0.022  0.000   1.92   0.00   0.32      0   2883    139.6   0.00   0.00   1.01   3.81   4.00   3.29   2.57   1.85   3.99   1.14   0.00   0.00   0.00      0      0      0       0     432
 1980 005   142    82   18.0      5   3.21   2297   3708    289   3434   9177   3405    8.5  0.032   3172      7  0.000  0.000  0.000  0.000   1.85   9.12   0.35      0   3172    139.6   0.00   0.00   1.01   3.81   4.00   3.29   2.57   1.85   3.99   1.14   0.00   0.00   0.00      0      0      0       0     449
 1980 006   143    83   18.0      5   3.20   2297   3719    579   3451   9477   3405   17.0  0.061   3462      7  0.000  0.000  0.000  0.000   1.77  16.72   0.37      0   3462    139.4   0.00   0.00   1.02   3.90   4.00   3.35   2.61   1.88   3.99   1.20   0.00   0.00   0.00      0      0      0       0     466
 1980 007   144    84   18.0      5   3.19   2297   3719    868   3476   9767   3405   25.5  0.089   3751      7  0.000  0.000  0.000  0.000   1.70  23.15   0.38      0   3751    139.0   0.00   0.00   1.04   4.00   4.00   3.41   2.65   1.92   4.00   1.27   0.00   0.00   0.00      0      0      0       0     483
 1980 008   145    85   18.0      5   3.18   2297   3719   1158   3515  10056   3405   34.0  0.115   4041      7  0.000  0.000  0.011  0.000   1.63  28.65   0.40      0   4041    138.5   0.00   0.00   1.05   4.00   4.00   3.51   2.73   1.97   4.00   1.38   0.00   0.00   0.00      0      0      0       0     501
 1980 009   146    86   18.0      5   3.17   2297   3719   1447   3542  10346   3405   42.5  0.140   4330      7  0.000  0.000  0.022  0.000   1.56  33.42   0.42      0   4330    138.0   0.00   0.00   1.06   4.00   4.00   3.58   2.78   2.01   4.00   1.45   0.00   0.00   0.00      0      0      0       0     518
 1980 010   147    87   18.0      5   3.15   2297   3719   1737   3570  10635   3405   51.0  0.163   4619      7  0.000  0.000  0.034  0.000   1.49  37.59   0.43      0   4619    137.3   0.00   0.00   1.07   4.00   4.00   3.66   2.83   2.05   4.00   1.53   0.00   0.00   0.00      0      0      0       0     536
 1980 011   148    88   18.0      5   3.14   2297   3719   2026   3602  10924   3405   59.5  0.185   4909      7  0.000  0.000  0.047  0.000   1.43  41.27   0.45      0   4909    136.5   0.00   0.00   1.09   4.00   4.00   3.74   2.89   2.10   4.00   1.62   0.00   0.00   0.00      0      0      0       0     554
 1980 012   149    89   18.0      5   3.11   2297   3719   2316   3626  11214   3405   68.0  0.206   5198      7  0.000  0.000  0.060  0.000   1.37  44.54   0.46      0   5198    135.5   0.00   0.00   1.10   4.00   4.00   3.81   2.94   2.13   4.00   1.68   0.00   0.00   0.00      0      0      0       0     572
 1980 013   150    90   18.0      5   3.08   2297   3719   2605   3655  11503   3405   76.5  0.226   5488      7  0.000  0.000  0.072  0.000   1.31  47.47   0.48      0   5488    134.3   0.00   0.00   1.11   4.00   4.00   3.89   3.00   2.18   4.00   1.75   0.00   0.00   0.00      0      0      0       0     590
 1980 014   151    91   18.0      5   3.05   2297   3719   2894   3681  11793   3405   85.0  0.245   5777      7  0.000  0.000  0.085  0.000   1.25  50.10   0.49      0   5777    132.8   0.00   0.00   1.12   3.98   4.00   3.97   3.07   2.22   4.00   1.83   0.00   0.00   0.00      0      0      0       0     608
 1980 015   152    92   18.0      5   3.01   2297   3719   3184   3676  12082   3405   93.5  0.264   6067      7  0.000  0.000  0.098  0.000   1.19  52.48   0.50      0   6067    131.2   0.00   0.00   1.14   4.00   4.00   3.98   3.07   2.23   3.99   1.84   0.00   0.00   0.00      0      0      0       0     627
 1980 016   153    93   18.0      5   2.97   2297   3719   3473   3666  12372   3405  102.0  0.281   6356      7  0.000  0.000  0.112  0.000   1.14  54.65   0.51      0   6356    129.4   0.00   0.00   1.15   4.00   4.00   3.98   3.07   2.23   3.97   1.84   0.00   0.00   0.00      0      0      0       0     645
 1980 017   154    94   18.0      5   2.92   2297   3719   3763   3650  12661   3405  110.5  0.297   6646      7  0.000  0.000  0.126  0.000   1.09  56.62   0.52      0   6646    127.3   0.00   0.00   1.16   3.99   3.99   3.97   3.06   2.22   3.96   1.83   0.00   0.00   0.00      0      0      0       0     663
 1980 018   155    95   18.0      5   2.87   2297   3719   4052   3664  12951   3405  119.0  0.313   6935      7  0.000  0.000  0.139  0.000   1.03  58.43   0.54      0   6935    125.1   0.00   0.00   1.17   4.00   4.00   4.00   3.10   2.25   3.96   1.86   0.00   0.00   0.00      0      0      0       0     682
 1980 019   156    96   18.0      5   2.82   2297   3719   4342   3676  13240   3405  127.5  0.328   7224      7  0.000  0.224  0.153  0.000   0.98  60.10   0.55      0   7224    122.7   0.00   0.00   1.19   3.98   4.00   4.00   3.14   2.28   3.97   1.89   0.00   0.00   0.00      0      0      0       0     700
 1980 020   157    97   18.0      5   2.76   2297   3719   4607   3696  13505   3405  135.3  0.341   7490      7  0.151  0.434  0.169  0.000   0.94  61.51   0.55      0   7490    120.1   0.00   0.00   1.20   3.96   4.00   4.00   3.20   2.32   3.98   1.93   0.00   0.00   0.00      0      0      0       0     718
 1980 021   158    98   18.0      5   2.70   2297   3719   4831   3695  13729   3405  141.9  0.352   7714      7  0.412  0.608  0.183  0.000   0.90  62.63   0.56      0   7714    117.4   0.00   0.00   1.21   3.94   4.00   4.00   3.22   2.34   3.98   1.93   0.00   0.00   0.00      0      0      0       0     737
 1980 022   159    99   18.0      5   2.62   2297   3719   5034   3679  13932   3405  147.8  0.361   7917      7  0.545  0.697  0.192  0.000   0.87  63.59   0.57      0   7917    114.2   0.00   0.00   1.22   3.92   3.99   3.99   3.20   2.33   3.96   1.93   0.00   0.00   0.00      0      0      0       0     755
 1980 023   160   100   18.0      5   2.56   2297   3719   5243   3665  14142   3405  154.0  0.371   8126      7  0.502  0.669  0.204  0.000   0.83  64.52   0.57      0   8126    111.3   0.00   0.00   1.23   3.90   3.99   3.98   3.20   2.32   3.95   1.92   0.00   0.00   0.00      0      0      0       0     774
 1980 024   161   101   18.0      5   2.49   2297   3719   5454   3651  14352   3405  160.2  0.380   8337      7  0.495  0.664  0.241  0.000   0.80  65.42   0.58      0   8337    108.3   0.00   0.00   1.23   3.88   3.99   3.97   3.19   2.32   3.93   1.91   0.00   0.00   0.00      0      0      0       0     792
 1980 025   162   102   18.0      5   2.42   2297   3715   5650   3633  14545   3405  165.9  0.388   8533      7  0.584  0.723  0.277  0.000   0.77  66.22   0.59      0   8533    105.2   0.00   0.00   1.23   3.88   3.99   3.97   3.19   2.32   3.93   1.91   0.00   0.00   0.00      0      0      0       0     810
 1980 026   163   103   18.0      5   2.34   2297   3678   5851   3614  14708   3405  171.8  0.398   8734      7  0.559  0.707  0.306  0.000   0.75  66.99   0.59      0   8734    102.1   0.00   0.00   1.23   3.88   3.99   3.97   3.19   2.32   3.93   1.91   0.00   0.00   0.00      0      0      0       0     828
 1980 027   164   104   18.0      5   2.27   2297   3679   6140   3597  14999   3405  180.3  0.409   9023      7  0.000  0.000  0.333  0.000   0.71  68.05   0.60      0   9023     99.0   0.00   0.00   1.24   3.86   3.97   3.95   3.17   2.31   3.91   1.90   0.00   0.00   0.00      0      0      0       0     847
 1980 028   165   105   18.0      5   2.20   2297   3651   6324   3579  15154   3405  185.7  0.417   9207      7  0.663  0.776  0.379  0.000   0.69  68.69   0.61      0   9207     95.7   0.00   0.00   1.24   3.86   3.97   3.95   3.17   2.31   3.91   1.90   0.00   0.00   0.00      0      0      0       0     865
 1980 029   166   106   18.0      5   2.12   2297   3608   6501   3561  15289   3405  190.9  0.425   9384      7  0.706  0.805  0.409  0.000   0.67  69.28   0.61      0   9384     92.3   0.00   0.00   1.24   3.86   3.97   3.95   3.17   2.31   3.91   1.90   0.00   0.00   0.00      0      0      0       0     882
 1980 030   167   107   18.0      5   2.05   2297   3510   6721   3543  15410   3405  197.4  0.436   9604      7  0.435  0.624  0.431  0.000   0.66  69.98   0.62      0   9604     89.1   0.00   0.00   1.24   3.86   3.97   3.95   3.17   2.31   3.91   1.90   0.00   0.00   0.00      0      0      0       0     900
 1980 031   168   108   18.0      5   1.97   2297   3467   6905   3526  15552   3405  202.8  0.444   9788      7  0.664  0.776  0.459  0.000   0.64  70.55   0.63      0   9788     85.9   0.00   0.00   1.24   3.86   3.97   3.95   3.17   2.31   3.91   1.90   0.00   0.00   0.00      0      0      0       0     918
 1980 032   169   109   18.0      5   1.90   2297   3407   7078   3508  15664   3405  207.9  0.452   9961      7  0.733  0.822  0.473  0.000   0.62  71.06   0.64      0   9961     82.8   0.00   0.00   1.24   3.86   3.97   3.95   3.17   2.31   3.91   1.90   0.00   0.00   0.00      0      0      0       0     936
 1980 033   170   110   18.0      5   1.83   2297   3339   7249   3490  15767   3405  212.9  0.460  10132      7  0.741  0.828  0.496  0.000   0.61  71.55   0.64      0  10132     79.7   0.00   0.00   1.24   3.86   3.97   3.95   3.17   2.31   3.91   1.90   0.00   0.00   0.00      0      0      0       0     953
 1980 034   171   111   18.0      5   1.76   2297   3252   7435   3473  15866   3405  218.3  0.469  10318      7  0.650  0.767  0.517  0.000   0.59  72.06   0.65      0  10318     76.6   0.00   0.00   1.24   3.86   3.97   3.95   3.17   2.31   3.91   1.90   0.00   0.00   0.00      0      0      0       0     971
 1980 035   172   112   18.0      5   1.69   2297   3142   7620   3456  15942   3405  223.8  0.478  10503      7  0.654  0.770  0.541  0.000   0.59  72.55   0.66      0  10503     73.6   0.00   0.00   1.24   3.86   3.97   3.95   3.17   2.31   3.91   1.90   0.00   0.00   0.00      0      0      0       0     988
 1980 036   173   113   18.0      5   1.62   2297   2986   7910   3438  16076   3405  232.3  0.492  10793      7  0.000  0.000  0.546  0.000   0.58  73.29   0.67      0  10793     70.7   0.00   0.00   1.24   3.86   3.97   3.95   3.17   2.31   3.91   1.90   0.00   0.00   0.00      0      0      0       0    1005
 1980 037   174   114   18.0      5   1.56   2297   2834   8199   3421  16213   3405  240.8  0.506  11082      7  0.000  0.000  0.566  0.000   0.58  73.99   0.68      0  11082     67.9   0.00   0.00   1.24   3.86   3.97   3.95   3.17   2.31   3.91   1.90   0.00   0.00   0.00      0      0      0       0    1022
 1980 038   175   115   18.0      5   1.50   2297   2694   8489   3404  16362   3405  249.3  0.519  11372      7  0.000  0.000  0.570  0.000   0.57  74.65   0.70      0  11372     65.1   0.00   0.00   1.24   3.86   3.97   3.95   3.17   2.31   3.91   1.90   0.00   0.00   0.00      0      0      0       0    1040
 1980 039   176   116   18.0      5   1.44   2297   2606   8725   3387  16511   3405  256.2  0.528  11607      7  0.336  0.558  0.574  0.000   0.56  75.16   0.70      0  11607     62.5   0.00   0.00   1.24   3.86   3.97   3.95   3.17   2.31   3.91   1.90   0.00   0.00   0.00      0      0      0       0    1057
 1980 040   177   117   18.0      5   1.38   2297   2398   9014   3370  16591   3405  264.7  0.543  11897      7  0.000  0.000  0.575  0.000   0.57  75.77   0.72      0  11897     60.0   0.00   0.00   1.24   3.86   3.97   3.95   3.17   2.31   3.91   1.90   0.00   0.00   0.00      0      0      0       0    1073
 1980 041   178   118   18.0      5   1.32   2297   2371   9141   3353  16692   3405  268.4  0.548  12024      7  0.000  0.000  0.588  0.000   0.56  76.02   0.72      0  12024     57.5   0.00   0.00   1.24   3.86   3.97   3.95   3.17   2.31   3.91   1.90   0.00   0.00   0.00      0      0      0       0    1090
 1980 042   179   119   18.0      5   1.32   2297   2371   9141   3353  16692   3405  268.4  0.548  12024      7  0.000  0.000  0.588  0.000   0.56  76.02   0.72      0  12024     57.5   0.00   0.00   1.24   3.86   3.97   3.95   3.17   2.31   3.91   1.90   0.00   0.00   0.00      0      0      0       0    1090
 1980 043   180   120   18.0      5   1.32   2297   2371   9141   3353  16692   3405  268.4  0.548  12024      7  0.000  0.000  0.588  0.000   0.56  76.02   0.72      0  12024     57.5   0.00   0.00   1.24   3.86   3.97   3.95   3.17   2.31   3.91   1.90   0.00   0.00   0.00      0      0      0       0    1090
 1980 044   181   121   18.0      5   1.32   2297   2371   9141   3353  16692   3405  268.4  0.548  12024      7  0.000  0.000  0.588  0.000   0.56  76.02   0.72      0  12024     57.5   0.00   0.00   1.24   3.86   3.97   3.95   3.17   2.31   3.91   1.90   0.00   0.00   0.00      0      0      0       0    1090
 1980 045   182   122   18.0      5   1.32   2297   2371   9141   3353  16692   3405  268.4  0.548  12024      7  0.000  0.000  0.588  0.000   0.56  76.02   0.72      0  12024     57.5   0.00   0.00   1.24   3.86   3.97   3.95   3.17   2.31   3.91   1.90   0.00   0.00   0.00      0      0      0       0    1090
